  Page 1                                    Fri Jul 26 15:11:11 2013

  ******************************************************************
  *                           E P A N E T                          *
  *                   Hydraulic and Water Quality                  *
  *                   Analysis for Pipe Networks                   *
  *                         Version 2.00.12                        *
  ******************************************************************
  
  Analysis begun Fri Jul 26 15:11:11 2013

  Analysis ended Fri Jul 26 15:11:13 2013
