  Page 1                                    Sun Sep 16 13:47:33 2018

  ******************************************************************
  *                           E P A N E T                          *
  *                   Hydraulic and Water Quality                  *
  *                   Analysis for Pipe Networks                   *
  *                         Version 2.00.12                        *
  ******************************************************************
  
  Analysis begun Sun Sep 16 13:47:33 2018

   
  Hydraulic Status:
  -----------------------------------------------------------------------
     0:00:00: Balanced after 8 trials
     0:00:00: Reservoir S1 is emptying
     0:00:00: Reservoir 2 is closed
     0:00:00: PRV prv_2 closed
   
     1:00:00: Balanced after 3 trials
   
     2:00:00: Balanced after 3 trials
   
     3:00:00: Balanced after 3 trials
   
     4:00:00: Balanced after 3 trials
   
     5:00:00: Balanced after 3 trials
   
   
  Hydraulic Status:
  -----------------------------------------------------------------------
     0:00:00: Balanced after 7 trials
     0:00:00: Reservoir S1 is emptying
     0:00:00: Reservoir 2 is closed
     0:00:00: PRV prv_2 closed
   
     1:00:00: Balanced after 3 trials
   
     2:00:00: Balanced after 3 trials
   
     3:00:00: Balanced after 3 trials
   
     4:00:00: Balanced after 3 trials
   
     5:00:00: Balanced after 3 trials
   
   
  Hydraulic Status:
  -----------------------------------------------------------------------
     0:00:00: Balanced after 7 trials
     0:00:00: Reservoir S1 is emptying
     0:00:00: Reservoir 2 is closed
     0:00:00: PRV prv_2 closed
   
     1:00:00: Balanced after 3 trials
   
     2:00:00: Balanced after 3 trials
   
     3:00:00: Balanced after 3 trials
   
     4:00:00: Balanced after 3 trials
   
     5:00:00: Balanced after 3 trials
   
   
  Hydraulic Status:
  -----------------------------------------------------------------------
     0:00:00: Balanced after 7 trials
     0:00:00: Reservoir S1 is emptying
     0:00:00: Reservoir 2 is closed
     0:00:00: PRV prv_2 closed
   
     1:00:00: Balanced after 3 trials
   
     2:00:00: Balanced after 3 trials
   
     3:00:00: Balanced after 3 trials
   
     4:00:00: Balanced after 3 trials
   
     5:00:00: Balanced after 3 trials
   
   
  Hydraulic Status:
  -----------------------------------------------------------------------
     0:00:00: Balanced after 7 trials
     0:00:00: Reservoir S1 is emptying
     0:00:00: Reservoir 2 is closed
     0:00:00: PRV prv_2 closed
   
     1:00:00: Balanced after 3 trials
   
     2:00:00: Balanced after 3 trials
   
     3:00:00: Balanced after 3 trials
   
     4:00:00: Balanced after 3 trials
   
     5:00:00: Balanced after 3 trials
   
   
  Hydraulic Status:
  -----------------------------------------------------------------------
     0:00:00: Balanced after 7 trials
     0:00:00: Reservoir S1 is emptying
     0:00:00: Reservoir 2 is closed
     0:00:00: PRV prv_2 closed
   
     1:00:00: Balanced after 3 trials
   
     2:00:00: Balanced after 3 trials
   
     3:00:00: Balanced after 3 trials
   
     4:00:00: Balanced after 3 trials
   
     5:00:00: Balanced after 3 trials
   
   
  Hydraulic Status:
  -----------------------------------------------------------------------
     0:00:00: Balanced after 7 trials
     0:00:00: Reservoir S1 is emptying
     0:00:00: Reservoir 2 is closed
     0:00:00: PRV prv_2 closed
   
     1:00:00: Balanced after 3 trials
   
     2:00:00: Balanced after 3 trials
   
     3:00:00: Balanced after 3 trials
   
     4:00:00: Balanced after 3 trials
   
     5:00:00: Balanced after 3 trials
   
   
  Hydraulic Status:
  -----------------------------------------------------------------------
     0:00:00: Balanced after 7 trials
     0:00:00: Reservoir S1 is emptying
     0:00:00: Reservoir 2 is closed
     0:00:00: PRV prv_2 closed
   
     1:00:00: Balanced after 3 trials
   
     2:00:00: Balanced after 3 trials
   
     3:00:00: Balanced after 3 trials
   
  