  Page 1                                    Wed Oct 04 13:17:18 2017

  ******************************************************************
  *                           E P A N E T                          *
  *                   Hydraulic and Water Quality                  *
  *                   Analysis for Pipe Networks                   *
  *                         Version 2.00.12                        *
  ******************************************************************
  
  Analysis begun Wed Oct 04 13:17:18 2017

   
  Hydraulic Status:
  -----------------------------------------------------------------------
     0:00:00: Balanced after 8 trials
     0:00:00: Reservoir S1 is emptying
     0:00:00: Reservoir 2 is emptying
   
     0:15:00: Balanced after 1 trials
   
     0:30:00: Balanced after 1 trials
   
     0:45:00: Balanced after 1 trials
   
     1:00:00: Balanced after 8 trials
     1:00:00: Reservoir 2 is closed
     1:00:00: PRV prv_2 changed from active to closed
   
     1:15:00: Balanced after 3 trials
   
     1:30:00: Balanced after 3 trials
   
     1:45:00: Balanced after 1 trials
   
     2:00:00: Balanced after 3 trials
   
     2:15:00: Balanced after 1 trials
   
   
  Hydraulic Status:
  -----------------------------------------------------------------------
     0:00:00: Balanced after 5 trials
     0:00:00: Reservoir S1 is emptying
     0:00:00: Reservoir 2 is emptying
   
     0:15:00: Balanced after 1 trials
   
     0:30:00: Balanced after 1 trials
   
     0:45:00: Balanced after 1 trials
   
     1:00:00: Balanced after 8 trials
     1:00:00: Reservoir 2 is closed
     1:00:00: PRV prv_2 changed from active to closed
   
     1:15:00: Balanced after 3 trials
   
     1:30:00: Balanced after 3 trials
   
     1:45:00: Balanced after 1 trials
   
     2:00:00: Balanced after 3 trials
   
     2:15:00: Balanced after 1 trials
   
   
  Hydraulic Status:
  -----------------------------------------------------------------------
     0:00:00: Balanced after 5 trials
     0:00:00: Reservoir S1 is emptying
     0:00:00: Reservoir 2 is emptying
   
     0:15:00: Balanced after 1 trials
   
     0:30:00: Balanced after 1 trials
   
     0:45:00: Balanced after 1 trials
   
     1:00:00: Balanced after 7 trials
     1:00:00: Reservoir 2 is closed
     1:00:00: PRV prv_2 changed from active to closed
   
     1:15:00: Balanced after 3 trials
   
     1:30:00: Balanced after 3 trials
   
     1:45:00: Balanced after 1 trials
   
     2:00:00: Balanced after 3 trials
   
     2:15:00: Balanced after 1 trials
   
   
  Hydraulic Status:
  -----------------------------------------------------------------------
     0:00:00: Balanced after 6 trials
     0:00:00: Reservoir S1 is emptying
     0:00:00: Reservoir 2 is emptying
   
     0:15:00: Balanced after 1 trials
   
     0:30:00: Balanced after 1 trials
   
     0:45:00: Balanced after 1 trials
   
     1:00:00: Balanced after 6 trials
     1:00:00: Reservoir 2 is closed
     1:00:00: PRV prv_2 changed from active to closed
   
     1:15:00: Balanced after 3 trials
   
     1:30:00: Balanced after 3 trials
   
     1:45:00: Balanced after 1 trials
   
     2:00:00: Balanced after 3 trials
   
     2:15:00: Balanced after 1 trials
   
   
  Hydraulic Status:
  -----------------------------------------------------------------------
     0:00:00: Balanced after 6 trials
     0:00:00: Reservoir S1 is emptying
     0:00:00: Reservoir 2 is emptying
   
     0:15:00: Balanced after 1 trials
   
     0:30:00: Balanced after 1 trials
   
     0:45:00: Balanced after 1 trials
   
     1:00:00: Balanced after 6 trials
     1:00:00: Reservoir 2 is closed
     1:00:00: PRV prv_2 changed from active to closed
   
     1:15:00: Balanced after 3 trials
   
     1:30:00: Balanced after 3 trials
   
     1:45:00: Balanced after 1 trials
   
     2:00:00: Balanced after 3 trials
   
     2:15:00: Balanced after 1 trials
   
   
  Hydraulic Status:
  -----------------------------------------------------------------------
     0:00:00: Balanced after 6 trials
     0:00:00: Reservoir S1 is emptying
     0:00:00: Reservoir 2 is emptying
   
     0:15:00: Balanced after 1 trials
   
     0:30:00: Balanced after 1 trials
   
     0:45:00: Balanced after 1 trials
   
     1:00:00: Balanced after 7 trials
     1:00:00: Reservoir 2 is closed
     1:00:00: PRV prv_2 changed from active to closed
   
     1:15:00: Balanced after 3 trials
   
     1:30:00: Balanced after 3 trials
   
     1:45:00: Balanced after 1 trials
   
     2:00:00: Balanced after 3 trials
   
     2:15:00: Balanced after 1 trials
   
   
  Hydraulic Status:
  -----------------------------------------------------------------------
     0:00:00: Balanced after 6 trials
     0:00:00: Reservoir S1 is emptying
     0:00:00: Reservoir 2 is emptying
   
     0:15:00: Balanced after 1 trials
   
     0:30:00: Balanced after 1 trials
   
     0:45:00: Balanced after 1 trials
   
     1:00:00: Balanced after 7 trials
     1:00:00: Reservoir 2 is closed
     1:00:00: PRV prv_2 changed from active to closed
   
     1:15:00: Balanced after 3 trials
   
     1:30:00: Balanced after 3 trials
   
     1:45:00: Balanced after 1 trials
   
     2:00:00: Balanced after 3 trials
   
     2:15:00: Balanced after 1 trials
   
   
  Hydraulic Status:
  -----------------------------------------------------------------------
     0:00:00: Balanced after 6 trials
     0:00:00: Reservoir S1 is emptying
     0:00:00: Reservoir 2 is emptying
   
     0:15:00: Balanced after 1 trials
   
     0:30:00: Balanced after 1 trials
   
     0:45:00: Balanced after 1 trials
   
     1:00:00: Balanced after 8 trials
     1:00:00: Reservoir 2 is closed
     1:00:00: PRV prv_2 changed from active to closed
   
     1:15:00: Balanced after 3 trials
   
     1:30:00: Balanced after 3 trials
   
     1:45:00: Balanced after 1 trials
   
     2:00:00: Balanced after 3 trials
   
     2:15:00: Balanced after 1 trials
   
   
  Hydraulic Status:
  -----------------------------------------------------------------------
     0:00:00: Balanced after 5 trials
     0:00:00: Reservoir S1 is emptying
     0:00:00: Reservoir 2 is emptying
   
     0:15:00: Balanced after 1 trials
   
     0:30:00: Balanced after 1 trials
   
     0:45:00: Balanced after 1 trials
   
     1:00:00: Balanced after 8 trials
     1:00:00: Reservoir 2 is closed
     1:00:00: PRV prv_2 changed from active to closed
   
     1:15:00: Balanced after 3 trials
   
     1:30:00: Balanced after 3 trials
   
     1:45:00: Balanced after 1 trials
   
     2:00:00: Balanced after 3 trials
   
     2:15:00: Balanced after 1 trials
   
   
  Hydraulic Status:
  -----------------------------------------------------------------------
     0:00:00: Balanced after 6 trials
     0:00:00: Reservoir S1 is emptying
     0:00:00: Reservoir 2 is emptying
   
     0:15:00: Balanced after 1 trials
   
     0:30:00: Balanced after 1 trials
   
     0:45:00: Balanced after 1 trials
   
     1:00:00: Balanced after 6 trials
     1:00:00: Reservoir 2 is closed
     1:00:00: PRV prv_2 changed from active to closed
   
     1:15:00: Balanced after 3 trials
   
     1:30:00: Balanced after 3 trials
   
     1:45:00: Balanced after 1 trials
   
     2:00:00: Balanced after 3 trials
   
     2:15:00: Balanced after 1 trials
   
   
  Hydraulic Status:
  -----------------------------------------------------------------------
     0:00:00: Balanced after 6 trials
     0:00:00: Reservoir S1 is emptying
     0:00:00: Reservoir 2 is emptying
   
     0:15:00: Balanced after 1 trials
   
     0:30:00: Balanced after 1 trials
   
     0:45:00: Balanced after 1 trials
   
     1:00:00: Balanced after 6 trials
     1:00:00: Reservoir 2 is closed
     1:00:00: PRV prv_2 changed from active to closed
   
     1:15:00: Balanced after 3 trials
   
     1:30:00: Balanced after 3 trials
   
     1:45:00: Balanced after 1 trials
   
     2:00:00: Balanced after 3 trials
   
     2:15:00: Balanced after 1 trials
   
   
  Hydraulic Status:
  -----------------------------------------------------------------------
     0:00:00: Balanced after 6 trials
     0:00:00: Reservoir S1 is emptying
     0:00:00: Reservoir 2 is emptying
   
     0:15:00: Balanced after 1 trials
   
     0:30:00: Balanced after 1 trials
   
     0:45:00: Balanced after 1 trials
   
     1:00:00: Balanced after 6 trials
     1:00:00: Reservoir 2 is closed
     1:00:00: PRV prv_2 changed from active to closed
   
     1:15:00: Balanced after 3 trials
   
     1:30:00: Balanced after 3 trials
   
     1:45:00: Balanced after 1 trials
   
     2:00:00: Balanced after 3 trials
   
     2:15:00: Balanced after 1 trials
   
   
  Hydraulic Status:
  -----------------------------------------------------------------------
     0:00:00: Balanced after 6 trials
     0:00:00: Reservoir S1 is emptying
     0:00:00: Reservoir 2 is emptying
   
     0:15:00: Balanced after 1 trials
   
     0:30:00: Balanced after 1 trials
   
     0:45:00: Balanced after 1 trials
   
     1:00:00: Balanced after 6 trials
     1:00:00: Reservoir 2 is closed
     1:00:00: PRV prv_2 changed from active to closed
   
     1:15:00: Balanced after 3 trials
   
     1:30:00: Balanced after 3 trials
   
     1:45:00: Balanced after 1 trials
   
     2:00:00: Balanced after 3 trials
   
     2:15:00: Balanced after 1 trials
   
   
  Hydraulic Status:
  -----------------------------------------------------------------------
     0:00:00: Balanced after 6 trials
     0:00:00: Reservoir S1 is emptying
     0:00:00: Reservoir 2 is emptying
   
     0:15:00: Balanced after 1 trials
   
     0:30:00: Balanced after 1 trials
   
     0:45:00: Balanced after 1 trials
   
     1:00:00: Balanced after 6 trials
     1:00:00: Reservoir 2 is closed
     1:00:00: PRV prv_2 changed from active to closed
   
     1:15:00: Balanced after 3 trials
   
     1:30:00: Balanced after 3 trials
   
     1:45:00: Balanced after 1 trials
   
     2:00:00: Balanced after 3 trials
   
     2:15:00: Balanced after 1 trials
   
   
  Hydraulic Status:
  -----------------------------------------------------------------------
     0:00:00: Balanced after 8 trials
     0:00:00: Reservoir S1 is emptying
     0:00:00: Reservoir 2 is emptying
   
     0:15:00: Balanced after 1 trials
   
     0:30:00: Balanced after 1 trials
   
     0:45:00: Balanced after 1 trials
   
     1:00:00: Balanced after 8 trials
     1:00:00: Reservoir 2 is closed
     1:00:00: PRV prv_2 changed from active to closed
   
     1:15:00: Balanced after 3 trials
   
     1:30:00: Balanced after 3 trials
   
     1:45:00: Balanced after 1 trials
   
     2:00:00: Balanced after 3 trials
   
     2:15:00: Balanced after 1 trials
   
   
  Hydraulic Status:
  -----------------------------------------------------------------------
     0:00:00: Balanced after 8 trials
     0:00:00: Reservoir S1 is emptying
     0:00:00: Reservoir 2 is emptying
   
     0:15:00: Balanced after 1 trials
   
     0:30:00: Balanced after 1 trials
   
     0:45:00: Balanced after 1 trials
   
     1:00:00: Balanced after 8 trials
     1:00:00: Reservoir 2 is closed
     1:00:00: PRV prv_2 changed from active to closed
   
     1:15:00: Balanced after 3 trials
   
     1:30:00: Balanced after 3 trials
   
     1:45:00: Balanced after 1 trials
   
     2:00:00: Balanced after 3 trials
   
     2:15:00: Balanced after 1 trials
   
   
  Hydraulic Status:
  -----------------------------------------------------------------------
     0:00:00: Balanced after 5 trials
     0:00:00: Reservoir S1 is emptying
     0:00:00: Reservoir 2 is emptying
   
     0:15:00: Balanced after 1 trials
   
     0:30:00: Balanced after 1 trials
   
     0:45:00: Balanced after 1 trials
   
     1:00:00: Balanced after 8 trials
     1:00:00: Reservoir 2 is closed
     1:00:00: PRV prv_2 changed from active to closed
   
     1:15:00: Balanced after 3 trials
   
     1:30:00: Balanced after 3 trials
   
     1:45:00: Balanced after 1 trials
   
     2:00:00: Balanced after 3 trials
   
     2:15:00: Balanced after 1 trials
   
   
  Hydraulic Status:
  -----------------------------------------------------------------------
     0:00:00: Balanced after 5 trials
     0:00:00: Reservoir S1 is emptying
     0:00:00: Reservoir 2 is emptying
   
     0:15:00: Balanced after 1 trials
   
     0:30:00: Balanced after 1 trials
   
     0:45:00: Balanced after 1 trials
   
     1:00:00: Balanced after 7 trials
     1:00:00: Reservoir 2 is closed
     1:00:00: PRV prv_2 changed from active to closed
   
     1:15:00: Balanced after 3 trials
   
     1:30:00: Balanced after 3 trials
   
     1:45:00: Balanced after 1 trials
   
     2:00:00: Balanced after 3 trials
   
     2:15:00: Balanced after 1 trials
   
   
  Hydraulic Status:
  -----------------------------------------------------------------------
     0:00:00: Balanced after 6 trials
     0:00:00: Reservoir S1 is emptying
     0:00:00: Reservoir 2 is emptying
   
     0:15:00: Balanced after 1 trials
   
     0:30:00: Balanced after 1 trials
   
     0:45:00: Balanced after 1 trials
   
     1:00:00: Balanced after 6 trials
     1:00:00: Reservoir 2 is closed
     1:00:00: PRV prv_2 changed from active to closed
   
     1:15:00: Balanced after 3 trials
   
     1:30:00: Balanced after 3 trials
   
     1:45:00: Balanced after 1 trials
   
     2:00:00: Balanced after 3 trials
   
     2:15:00: Balanced after 1 trials
   
   
  Hydraulic Status:
  -----------------------------------------------------------------------
     0:00:00: Balanced after 6 trials
     0:00:00: Reservoir S1 is emptying
     0:00:00: Reservoir 2 is emptying
   
     0:15:00: Balanced after 1 trials
   
     0:30:00: Balanced after 1 trials
   
     0:45:00: Balanced after 1 trials
   
     1:00:00: Balanced after 6 trials
     1:00:00: Reservoir 2 is closed
     1:00:00: PRV prv_2 changed from active to closed
   
     1:15:00: Balanced after 3 trials
   
     1:30:00: Balanced after 3 trials
   
     1:45:00: Balanced after 1 trials
   
     2:00:00: Balanced after 3 trials
   
     2:15:00: Balanced after 1 trials
   
   
  Hydraulic Status:
  -----------------------------------------------------------------------
     0:00:00: Balanced after 6 trials
     0:00:00: Reservoir S1 is emptying
     0:00:00: Reservoir 2 is emptying
   
     0:15:00: Balanced after 1 trials
   
     0:30:00: Balanced after 1 trials
   
     0:45:00: Balanced after 1 trials
   
     1:00:00: Balanced after 7 trials
     1:00:00: Reservoir 2 is closed
     1:00:00: PRV prv_2 changed from active to closed
   
     1:15:00: Balanced after 3 trials
   
     1:30:00: Balanced after 3 trials
   
     1:45:00: Balanced after 1 trials
   
     2:00:00: Balanced after 3 trials
   
     2:15:00: Balanced after 1 trials
   
   
  Hydraulic Status:
  -----------------------------------------------------------------------
     0:00:00: Balanced after 6 trials
     0:00:00: Reservoir S1 is emptying
     0:00:00: Reservoir 2 is emptying
   
     0:15:00: Balanced after 1 trials
   
     0:30:00: Balanced after 1 trials
   
     0:45:00: Balanced after 1 trials
   
     1:00:00: Balanced after 7 trials
     1:00:00: Reservoir 2 is closed
     1:00:00: PRV prv_2 changed from active to closed
   
     1:15:00: Balanced after 3 trials
   
     1:30:00: Balanced after 3 trials
   
     1:45:00: Balanced after 1 trials
   
     2:00:00: Balanced after 3 trials
   
     2:15:00: Balanced after 1 trials
   
   
  Hydraulic Status:
  -----------------------------------------------------------------------
     0:00:00: Balanced after 6 trials
     0:00:00: Reservoir S1 is emptying
     0:00:00: Reservoir 2 is emptying
   
     0:15:00: Balanced after 1 trials
   
     0:30:00: Balanced after 1 trials
   
     0:45:00: Balanced after 1 trials
   
     1:00:00: Balanced after 8 trials
     1:00:00: Reservoir 2 is closed
     1:00:00: PRV prv_2 changed from active to closed
   
     1:15:00: Balanced after 3 trials
   
     1:30:00: Balanced after 3 trials
   
     1:45:00: Balanced after 1 trials
   
     2:00:00: Balanced after 3 trials
   
     2:15:00: Balanced after 1 trials
   
   
  Hydraulic Status:
  -----------------------------------------------------------------------
     0:00:00: Balanced after 5 trials
     0:00:00: Reservoir S1 is emptying
     0:00:00: Reservoir 2 is emptying
   
     0:15:00: Balanced after 1 trials
   
     0:30:00: Balanced after 1 trials
   
     0:45:00: Balanced after 1 trials
   
     1:00:00: Balanced after 8 trials
     1:00:00: Reservoir 2 is closed
     1:00:00: PRV prv_2 changed from active to closed
   
     1:15:00: Balanced after 3 trials
   
     1:30:00: Balanced after 3 trials
   
     1:45:00: Balanced after 1 trials
   
     2:00:00: Balanced after 3 trials
   
     2:15:00: Balanced after 1 trials
   
   
  Hydraulic Status:
  -----------------------------------------------------------------------
     0:00:00: Balanced after 6 trials
     0:00:00: Reservoir S1 is emptying
     0:00:00: Reservoir 2 is emptying
   
     0:15:00: Balanced after 1 trials
   
     0:30:00: Balanced after 1 trials
   
     0:45:00: Balanced after 1 trials
   
     1:00:00: Balanced after 6 trials
     1:00:00: Reservoir 2 is closed
     1:00:00: PRV prv_2 changed from active to closed
   
     1:15:00: Balanced after 3 trials
   
     1:30:00: Balanced after 3 trials
   
     1:45:00: Balanced after 1 trials
   
     2:00:00: Balanced after 3 trials
   
     2:15:00: Balanced after 1 trials
   
   
  Hydraulic Status:
  -----------------------------------------------------------------------
     0:00:00: Balanced after 6 trials
     0:00:00: Reservoir S1 is emptying
     0:00:00: Reservoir 2 is emptying
   
     0:15:00: Balanced after 1 trials
   
     0:30:00: Balanced after 1 trials
   
     0:45:00: Balanced after 1 trials
   
     1:00:00: Balanced after 6 trials
     1:00:00: Reservoir 2 is closed
     1:00:00: PRV prv_2 changed from active to closed
   
     1:15:00: Balanced after 3 trials
   
     1:30:00: Balanced after 3 trials
   
     1:45:00: Balanced after 1 trials
   
     2:00:00: Balanced after 3 trials
   
     2:15:00: Balanced after 1 trials
   
   
  Hydraulic Status:
  -----------------------------------------------------------------------
     0:00:00: Balanced after 6 trials
     0:00:00: Reservoir S1 is emptying
     0:00:00: Reservoir 2 is emptying
   
     0:15:00: Balanced after 1 trials
   
     0:30:00: Balanced after 1 trials
   
     0:45:00: Balanced after 1 trials
   
     1:00:00: Balanced after 6 trials
     1:00:00: Reservoir 2 is closed
     1:00:00: PRV prv_2 changed from active to closed
   
     1:15:00: Balanced after 3 trials
   
     1:30:00: Balanced after 3 trials
   
     1:45:00: Balanced after 1 trials
   
     2:00:00: Balanced after 3 trials
   
     2:15:00: Balanced after 1 trials
   
   
  Hydraulic Status:
  -----------------------------------------------------------------------
     0:00:00: Balanced after 6 trials
     0:00:00: Reservoir S1 is emptying
     0:00:00: Reservoir 2 is emptying
   
     0:15:00: Balanced after 1 trials
   
     0:30:00: Balanced after 1 trials
   
     0:45:00: Balanced after 1 trials
   
     1:00:00: Balanced after 6 trials
     1:00:00: Reservoir 2 is closed
     1:00:00: PRV prv_2 changed from active to closed
   
     1:15:00: Balanced after 3 trials
   
     1:30:00: Balanced after 3 trials
   
     1:45:00: Balanced after 1 trials
   
     2:00:00: Balanced after 3 trials
   
     2:15:00: Balanced after 1 trials
   
   
  Hydraulic Status:
  -----------------------------------------------------------------------
     0:00:00: Balanced after 6 trials
     0:00:00: Reservoir S1 is emptying
     0:00:00: Reservoir 2 is emptying
   
     0:15:00: Balanced after 1 trials
   
     0:30:00: Balanced after 1 trials
   
     0:45:00: Balanced after 1 trials
   
     1:00:00: Balanced after 6 trials
     1:00:00: Reservoir 2 is closed
     1:00:00: PRV prv_2 changed from active to closed
   
     1:15:00: Balanced after 3 trials
   
     1:30:00: Balanced after 3 trials
   
     1:45:00: Balanced after 1 trials
   
     2:00:00: Balanced after 3 trials
   
     2:15:00: Balanced after 1 trials
   
   
  Hydraulic Status:
  -----------------------------------------------------------------------
     0:00:00: Balanced after 8 trials
     0:00:00: Reservoir S1 is emptying
     0:00:00: Reservoir 2 is emptying
   
     0:15:00: Balanced after 1 trials
   
     0:30:00: Balanced after 1 trials
   
     0:45:00: Balanced after 1 trials
   
     1:00:00: Balanced after 8 trials
     1:00:00: Reservoir 2 is closed
     1:00:00: PRV prv_2 changed from active to closed
   
     1:15:00: Balanced after 3 trials
   
     1:30:00: Balanced after 3 trials
   
     1:45:00: Balanced after 1 trials
   
     2:00:00: Balanced after 3 trials
   
     2:15:00: Balanced after 1 trials
   
   
  Hydraulic Status:
  -----------------------------------------------------------------------
     0:00:00: Balanced after 8 trials
     0:00:00: Reservoir S1 is emptying
     0:00:00: Reservoir 2 is emptying
   
     0:15:00: Balanced after 1 trials
   
     0:30:00: Balanced after 1 trials
   
     0:45:00: Balanced after 5 trials
     0:45:00: Reservoir 2 is closed
     0:45:00: PRV prv_2 changed from active to closed
   
     1:00:00: Balanced after 3 trials
   
     1:15:00: Balanced after 1 trials
   
     1:30:00: Balanced after 1 trials
   
     1:45:00: Balanced after 8 trials
     1:45:00: Reservoir 2 is emptying
     1:45:00: PRV prv_2 changed from closed to active
   
     2:00:00: Balanced after 3 trials
   
     2:15:00: Balanced after 1 trials
   
     2:30:00: Balanced after 1 trials
   
     2:45:00: Balanced after 5 trials
   
     3:00:00: Balanced after 3 trials
   
     3:15:00: Balanced after 1 trials
   
     3:30:00: Balanced after 1 trials
   
     3:45:00: Balanced after 1 trials
   
     4:00:00: Balanced after 3 trials
   
     4:15:00: Balanced after 1 trials
   
   
  Hydraulic Status:
  -----------------------------------------------------------------------
     0:00:00: Balanced after 6 trials
     0:00:00: Reservoir S1 is emptying
     0:00:00: Reservoir 2 is emptying
   
     0:15:00: Balanced after 1 trials
   
     0:30:00: Balanced after 1 trials
   
     0:45:00: Balanced after 5 trials
     0:45:00: Reservoir 2 is closed
     0:45:00: PRV prv_2 changed from active to closed
   
     1:00:00: Balanced after 3 trials
   
     1:15:00: Balanced after 1 trials
   
     1:30:00: Balanced after 1 trials
   
     1:45:00: Balanced after 8 trials
     1:45:00: Reservoir 2 is emptying
     1:45:00: PRV prv_2 changed from closed to active
   
     2:00:00: Balanced after 3 trials
   
     2:15:00: Balanced after 1 trials
   
     2:30:00: Balanced after 1 trials
   
     2:45:00: Balanced after 5 trials
   
     3:00:00: Balanced after 3 trials
   
     3:15:00: Balanced after 1 trials
   
     3:30:00: Balanced after 1 trials
   
     3:45:00: Balanced after 1 trials
   
     4:00:00: Balanced after 3 trials
   
     4:15:00: Balanced after 1 trials
   
   
  Hydraulic Status:
  -----------------------------------------------------------------------
     0:00:00: Balanced after 6 trials
     0:00:00: Reservoir S1 is emptying
     0:00:00: Reservoir 2 is emptying
   
     0:15:00: Balanced after 1 trials
   
     0:30:00: Balanced after 1 trials
   
     0:45:00: Balanced after 5 trials
     0:45:00: Reservoir 2 is closed
     0:45:00: PRV prv_2 changed from active to closed
   
     1:00:00: Balanced after 3 trials
   
     1:15:00: Balanced after 1 trials
   
     1:30:00: Balanced after 1 trials
   
     1:45:00: Balanced after 8 trials
     1:45:00: Reservoir 2 is emptying
     1:45:00: PRV prv_2 changed from closed to active
   
     2:00:00: Balanced after 3 trials
   
     2:15:00: Balanced after 1 trials
   
     2:30:00: Balanced after 1 trials
   
     2:45:00: Balanced after 5 trials
   
     3:00:00: Balanced after 3 trials
   
     3:15:00: Balanced after 1 trials
   
     3:30:00: Balanced after 1 trials
   
     3:45:00: Balanced after 1 trials
   
     4:00:00: Balanced after 3 trials
   
     4:15:00: Balanced after 1 trials
   
   
  Hydraulic Status:
  -----------------------------------------------------------------------
     0:00:00: Balanced after 5 trials
     0:00:00: Reservoir S1 is emptying
     0:00:00: Reservoir 2 is emptying
   
     0:15:00: Balanced after 1 trials
   
     0:30:00: Balanced after 1 trials
   
     0:45:00: Balanced after 5 trials
     0:45:00: Reservoir 2 is closed
     0:45:00: PRV prv_2 changed from active to closed
   
     1:00:00: Balanced after 3 trials
   
     1:15:00: Balanced after 1 trials
   
     1:30:00: Balanced after 1 trials
   
     1:45:00: Balanced after 8 trials
     1:45:00: Reservoir 2 is emptying
     1:45:00: PRV prv_2 changed from closed to active
   
     2:00:00: Balanced after 3 trials
   
     2:15:00: Balanced after 1 trials
   
     2:30:00: Balanced after 1 trials
   
     2:45:00: Balanced after 4 trials
   
     3:00:00: Balanced after 3 trials
   
     3:15:00: Balanced after 1 trials
   
     3:30:00: Balanced after 1 trials
   
     3:45:00: Balanced after 1 trials
   
     4:00:00: Balanced after 3 trials
   
     4:15:00: Balanced after 1 trials
   
   
  Hydraulic Status:
  -----------------------------------------------------------------------
     0:00:00: Balanced after 5 trials
     0:00:00: Reservoir S1 is emptying
     0:00:00: Reservoir 2 is emptying
   
     0:15:00: Balanced after 1 trials
   
     0:30:00: Balanced after 1 trials
   
     0:45:00: Balanced after 5 trials
     0:45:00: Reservoir 2 is closed
     0:45:00: PRV prv_2 changed from active to closed
   
     1:00:00: Balanced after 3 trials
   
     1:15:00: Balanced after 1 trials
   
     1:30:00: Balanced after 1 trials
   
     1:45:00: Balanced after 7 trials
     1:45:00: Reservoir 2 is emptying
     1:45:00: PRV prv_2 changed from closed to active
   
     2:00:00: Balanced after 3 trials
   
     2:15:00: Balanced after 1 trials
   
     2:30:00: Balanced after 1 trials
   
     2:45:00: Balanced after 4 trials
   
     3:00:00: Balanced after 3 trials
   
     3:15:00: Balanced after 1 trials
   
     3:30:00: Balanced after 1 trials
   
     3:45:00: Balanced after 1 trials
   
     4:00:00: Balanced after 3 trials
   
     4:15:00: Balanced after 1 trials
   
   
  Hydraulic Status:
  -----------------------------------------------------------------------
     0:00:00: Balanced after 5 trials
     0:00:00: Reservoir S1 is emptying
     0:00:00: Reservoir 2 is emptying
   
     0:15:00: Balanced after 1 trials
   
     0:30:00: Balanced after 1 trials
   
     0:45:00: Balanced after 5 trials
     0:45:00: Reservoir 2 is closed
     0:45:00: PRV prv_2 changed from active to closed
   
     1:00:00: Balanced after 3 trials
   
     1:15:00: Balanced after 1 trials
   
     1:30:00: Balanced after 1 trials
   
     1:45:00: Balanced after 8 trials
     1:45:00: Reservoir 2 is emptying
     1:45:00: PRV prv_2 changed from closed to active
   
     2:00:00: Balanced after 3 trials
   
     2:15:00: Balanced after 1 trials
   
     2:30:00: Balanced after 1 trials
   
     2:45:00: Balanced after 5 trials
   
     3:00:00: Balanced after 3 trials
   
     3:15:00: Balanced after 1 trials
   
     3:30:00: Balanced after 1 trials
   
     3:45:00: Balanced after 1 trials
   
     4:00:00: Balanced after 3 trials
   
     4:15:00: Balanced after 1 trials
   
   
  Hydraulic Status:
  -----------------------------------------------------------------------
     0:00:00: Balanced after 5 trials
     0:00:00: Reservoir S1 is emptying
     0:00:00: Reservoir 2 is emptying
   
     0:15:00: Balanced after 1 trials
   
     0:30:00: Balanced after 1 trials
   
     0:45:00: Balanced after 5 trials
     0:45:00: Reservoir 2 is closed
     0:45:00: PRV prv_2 changed from active to closed
   
     1:00:00: Balanced after 3 trials
   
     1:15:00: Balanced after 1 trials
   
     1:30:00: Balanced after 1 trials
   
     1:45:00: Balanced after 8 trials
     1:45:00: Reservoir 2 is emptying
     1:45:00: PRV prv_2 changed from closed to active
   
     2:00:00: Balanced after 3 trials
   
     2:15:00: Balanced after 1 trials
   
     2:30:00: Balanced after 1 trials
   
     2:45:00: Balanced after 4 trials
   
     3:00:00: Balanced after 3 trials
   
     3:15:00: Balanced after 1 trials
   
     3:30:00: Balanced after 1 trials
   
     3:45:00: Balanced after 1 trials
   
     4:00:00: Balanced after 3 trials
   
     4:15:00: Balanced after 1 trials
   
   
  Hydraulic Status:
  -----------------------------------------------------------------------
     0:00:00: Balanced after 5 trials
     0:00:00: Reservoir S1 is emptying
     0:00:00: Reservoir 2 is emptying
   
     0:15:00: Balanced after 1 trials
   
     0:30:00: Balanced after 1 trials
   
     0:45:00: Balanced after 5 trials
     0:45:00: Reservoir 2 is closed
     0:45:00: PRV prv_2 changed from active to closed
   
     1:00:00: Balanced after 3 trials
   
     1:15:00: Balanced after 1 trials
   
     1:30:00: Balanced after 1 trials
   
     1:45:00: Balanced after 8 trials
     1:45:00: Reservoir 2 is emptying
     1:45:00: PRV prv_2 changed from closed to active
   
     2:00:00: Balanced after 3 trials
   
     2:15:00: Balanced after 1 trials
   
     2:30:00: Balanced after 1 trials
   
     2:45:00: Balanced after 4 trials
   
     3:00:00: Balanced after 3 trials
   
     3:15:00: Balanced after 1 trials
   
     3:30:00: Balanced after 1 trials
   
     3:45:00: Balanced after 1 trials
   
     4:00:00: Balanced after 3 trials
   
     4:15:00: Balanced after 1 trials
   
   
  Hydraulic Status:
  -----------------------------------------------------------------------
     0:00:00: Balanced after 5 trials
     0:00:00: Reservoir S1 is emptying
     0:00:00: Reservoir 2 is emptying
   
     0:15:00: Balanced after 1 trials
   
     0:30:00: Balanced after 1 trials
   
     0:45:00: Balanced after 5 trials
     0:45:00: Reservoir 2 is closed
     0:45:00: PRV prv_2 changed from active to closed
   
     1:00:00: Balanced after 3 trials
   
     1:15:00: Balanced after 1 trials
   
     1:30:00: Balanced after 1 trials
   
     1:45:00: Balanced after 8 trials
     1:45:00: Reservoir 2 is emptying
     1:45:00: PRV prv_2 changed from closed to active
   
     2:00:00: Balanced after 3 trials
   
     2:15:00: Balanced after 1 trials
   
     2:30:00: Balanced after 1 trials
   
     2:45:00: Balanced after 4 trials
   
     3:00:00: Balanced after 3 trials
   
     3:15:00: Balanced after 1 trials
   
     3:30:00: Balanced after 1 trials
   
     3:45:00: Balanced after 1 trials
   
     4:00:00: Balanced after 3 trials
   
     4:15:00: Balanced after 1 trials
   
   
  Hydraulic Status:
  -----------------------------------------------------------------------
     0:00:00: Balanced after 5 trials
     0:00:00: Reservoir S1 is emptying
     0:00:00: Reservoir 2 is emptying
   
     0:15:00: Balanced after 1 trials
   
     0:30:00: Balanced after 1 trials
   
     0:45:00: Balanced after 5 trials
     0:45:00: Reservoir 2 is closed
     0:45:00: PRV prv_2 changed from active to closed
   
     1:00:00: Balanced after 3 trials
   
     1:15:00: Balanced after 1 trials
   
     1:30:00: Balanced after 1 trials
   
     1:45:00: Balanced after 7 trials
     1:45:00: Reservoir 2 is emptying
     1:45:00: PRV prv_2 changed from closed to active
   
     2:00:00: Balanced after 3 trials
   
     2:15:00: Balanced after 1 trials
   
     2:30:00: Balanced after 1 trials
   
     2:45:00: Balanced after 4 trials
   
     3:00:00: Balanced after 3 trials
   
     3:15:00: Balanced after 1 trials
   
     3:30:00: Balanced after 1 trials
   
     3:45:00: Balanced after 1 trials
   
     4:00:00: Balanced after 3 trials
   
     4:15:00: Balanced after 1 trials
   
   
  Hydraulic Status:
  -----------------------------------------------------------------------
     0:00:00: Balanced after 5 trials
     0:00:00: Reservoir S1 is emptying
     0:00:00: Reservoir 2 is emptying
   
     0:15:00: Balanced after 1 trials
   
     0:30:00: Balanced after 1 trials
   
     0:45:00: Balanced after 5 trials
     0:45:00: Reservoir 2 is closed
     0:45:00: PRV prv_2 changed from active to closed
   
     1:00:00: Balanced after 3 trials
   
     1:15:00: Balanced after 1 trials
   
     1:30:00: Balanced after 1 trials
   
     1:45:00: Balanced after 7 trials
     1:45:00: Reservoir 2 is emptying
     1:45:00: PRV prv_2 changed from closed to active
   
     2:00:00: Balanced after 3 trials
   
     2:15:00: Balanced after 1 trials
   
     2:30:00: Balanced after 1 trials
   
     2:45:00: Balanced after 4 trials
   
     3:00:00: Balanced after 3 trials
   
     3:15:00: Balanced after 1 trials
   
     3:30:00: Balanced after 1 trials
   
     3:45:00: Balanced after 1 trials
   
     4:00:00: Balanced after 3 trials
   
     4:15:00: Balanced after 1 trials
   
   
  Hydraulic Status:
  -----------------------------------------------------------------------
     0:00:00: Balanced after 5 trials
     0:00:00: Reservoir S1 is emptying
     0:00:00: Reservoir 2 is emptying
   
     0:15:00: Balanced after 1 trials
   
     0:30:00: Balanced after 1 trials
   
     0:45:00: Balanced after 6 trials
     0:45:00: Reservoir 2 is closed
     0:45:00: PRV prv_2 changed from active to closed
   
     1:00:00: Balanced after 3 trials
   
     1:15:00: Balanced after 1 trials
   
     1:30:00: Balanced after 1 trials
   
     1:45:00: Balanced after 7 trials
     1:45:00: Reservoir 2 is emptying
     1:45:00: PRV prv_2 changed from closed to active
   
     2:00:00: Balanced after 3 trials
   
     2:15:00: Balanced after 1 trials
   
     2:30:00: Balanced after 1 trials
   
     2:45:00: Balanced after 4 trials
   
     3:00:00: Balanced after 3 trials
   
     3:15:00: Balanced after 1 trials
   
     3:30:00: Balanced after 1 trials
   
     3:45:00: Balanced after 1 trials
   
     4:00:00: Balanced after 3 trials
   
     4:15:00: Balanced after 1 trials
   
   
  Hydraulic Status:
  -----------------------------------------------------------------------
     0:00:00: Balanced after 5 trials
     0:00:00: Reservoir S1 is emptying
     0:00:00: Reservoir 2 is emptying
   
     0:15:00: Balanced after 1 trials
   
     0:30:00: Balanced after 1 trials
   
     0:45:00: Balanced after 5 trials
     0:45:00: Reservoir 2 is closed
     0:45:00: PRV prv_2 changed from active to closed
   
     1:00:00: Balanced after 3 trials
   
     1:15:00: Balanced after 1 trials
   
     1:30:00: Balanced after 1 trials
   
     1:45:00: Balanced after 6 trials
     1:45:00: Reservoir 2 is emptying
     1:45:00: PRV prv_2 changed from closed to active
   
     2:00:00: Balanced after 3 trials
   
     2:15:00: Balanced after 1 trials
   
     2:30:00: Balanced after 1 trials
   
     2:45:00: Balanced after 4 trials
   
     3:00:00: Balanced after 3 trials
   
     3:15:00: Balanced after 1 trials
   
     3:30:00: Balanced after 1 trials
   
     3:45:00: Balanced after 1 trials
   
     4:00:00: Balanced after 3 trials
   
     4:15:00: Balanced after 1 trials
   
   
  Hydraulic Status:
  -----------------------------------------------------------------------
     0:00:00: Balanced after 5 trials
     0:00:00: Reservoir S1 is emptying
     0:00:00: Reservoir 2 is emptying
   
     0:15:00: Balanced after 1 trials
   
     0:30:00: Balanced after 1 trials
   
     0:45:00: Balanced after 3 trials
   
     1:00:00: Balanced after 3 trials
   
     1:15:00: Balanced after 1 trials
   
     1:30:00: Balanced after 1 trials
   
     1:45:00: Balanced after 3 trials
   
     2:00:00: Balanced after 3 trials
   
     2:15:00: Balanced after 1 trials
   
     2:30:00: Balanced after 1 trials
   
     2:45:00: Balanced after 4 trials
   
     3:00:00: Balanced after 3 trials
   
     3:15:00: Balanced after 1 trials
   
     3:30:00: Balanced after 1 trials
   
     3:45:00: Balanced after 1 trials
   
     4:00:00: Balanced after 3 trials
   
     4:15:00: Balanced after 1 trials
   
   
  Hydraulic Status:
  -----------------------------------------------------------------------
     0:00:00: Balanced after 6 trials
     0:00:00: Reservoir S1 is emptying
     0:00:00: Reservoir 2 is emptying
   
     0:15:00: Balanced after 1 trials
   
     0:30:00: Balanced after 1 trials
   
     0:45:00: Balanced after 5 trials
     0:45:00: Reservoir 2 is closed
     0:45:00: PRV prv_2 changed from active to closed
   
     1:00:00: Balanced after 3 trials
   
     1:15:00: Balanced after 1 trials
   
     1:30:00: Balanced after 1 trials
   
     1:45:00: Balanced after 8 trials
     1:45:00: Reservoir 2 is emptying
     1:45:00: PRV prv_2 changed from closed to active
   
     2:00:00: Balanced after 3 trials
   
     2:15:00: Balanced after 1 trials
   
     2:30:00: Balanced after 1 trials
   
     2:45:00: Balanced after 5 trials
   
     3:00:00: Balanced after 3 trials
   
     3:15:00: Balanced after 1 trials
   
     3:30:00: Balanced after 1 trials
   
     3:45:00: Balanced after 1 trials
   
     4:00:00: Balanced after 3 trials
   
     4:15:00: Balanced after 1 trials
   
   
  Hydraulic Status:
  -----------------------------------------------------------------------
     0:00:00: Balanced after 8 trials
     0:00:00: Reservoir S1 is emptying
     0:00:00: Reservoir 2 is emptying
   
     0:15:00: Balanced after 1 trials
   
     0:30:00: Balanced after 1 trials
   
     0:45:00: Balanced after 6 trials
     0:45:00: Reservoir 2 is closed
     0:45:00: PRV prv_2 changed from active to closed
   
     1:00:00: Balanced after 3 trials
   
     1:15:00: Balanced after 1 trials
   
     1:30:00: Balanced after 1 trials
   
     1:45:00: Balanced after 8 trials
     1:45:00: Reservoir 2 is emptying
     1:45:00: PRV prv_2 changed from closed to active
   
     2:00:00: Balanced after 3 trials
   
     2:15:00: Balanced after 1 trials
   
     2:30:00: Balanced after 1 trials
   
     2:45:00: Balanced after 4 trials
   
     3:00:00: Balanced after 3 trials
   
     3:15:00: Balanced after 1 trials
   
     3:30:00: Balanced after 1 trials
   
     3:45:00: Balanced after 5 trials
   
     4:00:00: Balanced after 3 trials
   
     4:15:00: Balanced after 1 trials
   
   
  Hydraulic Status:
  -----------------------------------------------------------------------
     0:00:00: Balanced after 6 trials
     0:00:00: Reservoir S1 is emptying
     0:00:00: Reservoir 2 is emptying
   
     0:15:00: Balanced after 1 trials
   
     0:30:00: Balanced after 1 trials
   
     0:45:00: Balanced after 5 trials
     0:45:00: Reservoir 2 is closed
     0:45:00: PRV prv_2 changed from active to closed
   
     1:00:00: Balanced after 3 trials
   
     1:15:00: Balanced after 1 trials
   
     1:30:00: Balanced after 1 trials
   
     1:45:00: Balanced after 8 trials
     1:45:00: Reservoir 2 is emptying
     1:45:00: PRV prv_2 changed from closed to active
   
     2:00:00: Balanced after 3 trials
   
     2:15:00: Balanced after 1 trials
   
     2:30:00: Balanced after 1 trials
   
     2:45:00: Balanced after 4 trials
   
     3:00:00: Balanced after 3 trials
   
     3:15:00: Balanced after 1 trials
   
     3:30:00: Balanced after 1 trials
   
     3:45:00: Balanced after 5 trials
   
     4:00:00: Balanced after 3 trials
   
     4:15:00: Balanced after 1 trials
   
   
  Hydraulic Status:
  -----------------------------------------------------------------------
     0:00:00: Balanced after 6 trials
     0:00:00: Reservoir S1 is emptying
     0:00:00: Reservoir 2 is emptying
   
     0:15:00: Balanced after 1 trials
   
     0:30:00: Balanced after 1 trials
   
     0:45:00: Balanced after 5 trials
     0:45:00: Reservoir 2 is closed
     0:45:00: PRV prv_2 changed from active to closed
   
     1:00:00: Balanced after 3 trials
   
     1:15:00: Balanced after 1 trials
   
     1:30:00: Balanced after 1 trials
   
     1:45:00: Balanced after 8 trials
     1:45:00: Reservoir 2 is emptying
     1:45:00: PRV prv_2 changed from closed to active
   
     2:00:00: Balanced after 3 trials
   
     2:15:00: Balanced after 1 trials
   
     2:30:00: Balanced after 1 trials
   
     2:45:00: Balanced after 4 trials
   
     3:00:00: Balanced after 3 trials
   
     3:15:00: Balanced after 1 trials
   
     3:30:00: Balanced after 1 trials
   
     3:45:00: Balanced after 5 trials
   
     4:00:00: Balanced after 3 trials
   
     4:15:00: Balanced after 1 trials
   
   
  Hydraulic Status:
  -----------------------------------------------------------------------
     0:00:00: Balanced after 6 trials
     0:00:00: Reservoir S1 is emptying
     0:00:00: Reservoir 2 is emptying
   
     0:15:00: Balanced after 1 trials
   
     0:30:00: Balanced after 1 trials
   
     0:45:00: Balanced after 5 trials
     0:45:00: Reservoir 2 is closed
     0:45:00: PRV prv_2 changed from active to closed
   
     1:00:00: Balanced after 3 trials
   
     1:15:00: Balanced after 1 trials
   
     1:30:00: Balanced after 1 trials
   
     1:45:00: Balanced after 8 trials
     1:45:00: Reservoir 2 is emptying
     1:45:00: PRV prv_2 changed from closed to active
   
     2:00:00: Balanced after 3 trials
   
     2:15:00: Balanced after 1 trials
   
     2:30:00: Balanced after 1 trials
   
     2:45:00: Balanced after 4 trials
   
     3:00:00: Balanced after 3 trials
   
     3:15:00: Balanced after 1 trials
   
     3:30:00: Balanced after 1 trials
   
     3:45:00: Balanced after 4 trials
   
     4:00:00: Balanced after 3 trials
   
     4:15:00: Balanced after 1 trials
   
   
  Hydraulic Status:
  -----------------------------------------------------------------------
     0:00:00: Balanced after 6 trials
     0:00:00: Reservoir S1 is emptying
     0:00:00: Reservoir 2 is emptying
   
     0:15:00: Balanced after 1 trials
   
     0:30:00: Balanced after 1 trials
   
     0:45:00: Balanced after 5 trials
     0:45:00: Reservoir 2 is closed
     0:45:00: PRV prv_2 changed from active to closed
   
     1:00:00: Balanced after 3 trials
   
     1:15:00: Balanced after 1 trials
   
     1:30:00: Balanced after 1 trials
   
     1:45:00: Balanced after 8 trials
     1:45:00: Reservoir 2 is emptying
     1:45:00: PRV prv_2 changed from closed to active
   
     2:00:00: Balanced after 3 trials
   
     2:15:00: Balanced after 1 trials
   
     2:30:00: Balanced after 1 trials
   
     2:45:00: Balanced after 4 trials
   
     3:00:00: Balanced after 3 trials
   
     3:15:00: Balanced after 1 trials
   
     3:30:00: Balanced after 1 trials
   
     3:45:00: Balanced after 4 trials
   
     4:00:00: Balanced after 3 trials
   
     4:15:00: Balanced after 1 trials
   
   
  Hydraulic Status:
  -----------------------------------------------------------------------
     0:00:00: Balanced after 6 trials
     0:00:00: Reservoir S1 is emptying
     0:00:00: Reservoir 2 is emptying
   
     0:15:00: Balanced after 1 trials
   
     0:30:00: Balanced after 1 trials
   
     0:45:00: Balanced after 5 trials
     0:45:00: Reservoir 2 is closed
     0:45:00: PRV prv_2 changed from active to closed
   
     1:00:00: Balanced after 3 trials
   
     1:15:00: Balanced after 1 trials
   
     1:30:00: Balanced after 1 trials
   
     1:45:00: Balanced after 8 trials
     1:45:00: Reservoir 2 is emptying
     1:45:00: PRV prv_2 changed from closed to active
   
     2:00:00: Balanced after 3 trials
   
     2:15:00: Balanced after 1 trials
   
     2:30:00: Balanced after 1 trials
   
     2:45:00: Balanced after 5 trials
   
     3:00:00: Balanced after 3 trials
   
     3:15:00: Balanced after 1 trials
   
     3:30:00: Balanced after 1 trials
   
     3:45:00: Balanced after 4 trials
   
     4:00:00: Balanced after 3 trials
   
     4:15:00: Balanced after 1 trials
   
   
  Hydraulic Status:
  -----------------------------------------------------------------------
     0:00:00: Balanced after 6 trials
     0:00:00: Reservoir S1 is emptying
     0:00:00: Reservoir 2 is emptying
   
     0:15:00: Balanced after 1 trials
   
     0:30:00: Balanced after 1 trials
   
     0:45:00: Balanced after 5 trials
     0:45:00: Reservoir 2 is closed
     0:45:00: PRV prv_2 changed from active to closed
   
     1:00:00: Balanced after 3 trials
   
     1:15:00: Balanced after 1 trials
   
     1:30:00: Balanced after 1 trials
   
     1:45:00: Balanced after 8 trials
     1:45:00: Reservoir 2 is emptying
     1:45:00: PRV prv_2 changed from closed to active
   
     2:00:00: Balanced after 3 trials
   
     2:15:00: Balanced after 1 trials
   
     2:30:00: Balanced after 1 trials
   
     2:45:00: Balanced after 5 trials
   
     3:00:00: Balanced after 3 trials
   
     3:15:00: Balanced after 1 trials
   
     3:30:00: Balanced after 1 trials
   
     3:45:00: Balanced after 4 trials
   
     4:00:00: Balanced after 3 trials
   
     4:15:00: Balanced after 1 trials
   
   
  Hydraulic Status:
  -----------------------------------------------------------------------
     0:00:00: Balanced after 6 trials
     0:00:00: Reservoir S1 is emptying
     0:00:00: Reservoir 2 is emptying
   
     0:15:00: Balanced after 1 trials
   
     0:30:00: Balanced after 1 trials
   
     0:45:00: Balanced after 5 trials
     0:45:00: Reservoir 2 is closed
     0:45:00: PRV prv_2 changed from active to closed
   
     1:00:00: Balanced after 3 trials
   
     1:15:00: Balanced after 1 trials
   
     1:30:00: Balanced after 1 trials
   
     1:45:00: Balanced after 8 trials
     1:45:00: Reservoir 2 is emptying
     1:45:00: PRV prv_2 changed from closed to active
   
     2:00:00: Balanced after 3 trials
   
     2:15:00: Balanced after 1 trials
   
     2:30:00: Balanced after 1 trials
   
     2:45:00: Balanced after 5 trials
   
     3:00:00: Balanced after 3 trials
   
     3:15:00: Balanced after 1 trials
   
     3:30:00: Balanced after 1 trials
   
     3:45:00: Balanced after 4 trials
   
     4:00:00: Balanced after 3 trials
   
     4:15:00: Balanced after 1 trials
   
   
  Hydraulic Status:
  -----------------------------------------------------------------------
     0:00:00: Balanced after 6 trials
     0:00:00: Reservoir S1 is emptying
     0:00:00: Reservoir 2 is emptying
   
     0:15:00: Balanced after 1 trials
   
     0:30:00: Balanced after 1 trials
   
     0:45:00: Balanced after 6 trials
     0:45:00: Reservoir 2 is closed
     0:45:00: PRV prv_2 changed from active to closed
   
     1:00:00: Balanced after 3 trials
   
     1:15:00: Balanced after 1 trials
   
     1:30:00: Balanced after 1 trials
   
     1:45:00: Balanced after 8 trials
     1:45:00: Reservoir 2 is emptying
     1:45:00: PRV prv_2 changed from closed to active
   
     2:00:00: Balanced after 3 trials
   
     2:15:00: Balanced after 1 trials
   
     2:30:00: Balanced after 1 trials
   
     2:45:00: Balanced after 5 trials
   
     3:00:00: Balanced after 3 trials
   
     3:15:00: Balanced after 1 trials
   
     3:30:00: Balanced after 1 trials
   
     3:45:00: Balanced after 4 trials
   
     4:00:00: Balanced after 3 trials
   
     4:15:00: Balanced after 1 trials
   
   
  Hydraulic Status:
  -----------------------------------------------------------------------
     0:00:00: Balanced after 6 trials
     0:00:00: Reservoir S1 is emptying
     0:00:00: Reservoir 2 is emptying
   
     0:15:00: Balanced after 1 trials
   
     0:30:00: Balanced after 1 trials
   
     0:45:00: Balanced after 6 trials
     0:45:00: Reservoir 2 is closed
     0:45:00: PRV prv_2 changed from active to closed
   
     1:00:00: Balanced after 3 trials
   
     1:15:00: Balanced after 1 trials
   
     1:30:00: Balanced after 1 trials
   
     1:45:00: Balanced after 8 trials
     1:45:00: Reservoir 2 is emptying
     1:45:00: PRV prv_2 changed from closed to active
   
     2:00:00: Balanced after 3 trials
   
     2:15:00: Balanced after 1 trials
   
     2:30:00: Balanced after 1 trials
   
     2:45:00: Balanced after 5 trials
   
     3:00:00: Balanced after 3 trials
   
     3:15:00: Balanced after 1 trials
   
     3:30:00: Balanced after 1 trials
   
     3:45:00: Balanced after 5 trials
   
     4:00:00: Balanced after 3 trials
   
     4:15:00: Balanced after 1 trials
   
   
  Hydraulic Status:
  -----------------------------------------------------------------------
     0:00:00: Balanced after 6 trials
     0:00:00: Reservoir S1 is emptying
     0:00:00: Reservoir 2 is emptying
   
     0:15:00: Balanced after 1 trials
   
     0:30:00: Balanced after 1 trials
   
     0:45:00: Balanced after 6 trials
     0:45:00: Reservoir 2 is closed
     0:45:00: PRV prv_2 changed from active to closed
   
     1:00:00: Balanced after 3 trials
   
     1:15:00: Balanced after 1 trials
   
     1:30:00: Balanced after 1 trials
   
     1:45:00: Balanced after 8 trials
     1:45:00: Reservoir 2 is emptying
     1:45:00: PRV prv_2 changed from closed to active
   
     2:00:00: Balanced after 3 trials
   
     2:15:00: Balanced after 1 trials
   
     2:30:00: Balanced after 1 trials
   
     2:45:00: Balanced after 4 trials
   
     3:00:00: Balanced after 3 trials
   
     3:15:00: Balanced after 1 trials
   
     3:30:00: Balanced after 1 trials
   
     3:45:00: Balanced after 5 trials
   
     4:00:00: Balanced after 3 trials
   
     4:15:00: Balanced after 1 trials
   
   
  Hydraulic Status:
  -----------------------------------------------------------------------
     0:00:00: Balanced after 6 trials
     0:00:00: Reservoir S1 is emptying
     0:00:00: Reservoir 2 is emptying
   
     0:15:00: Balanced after 1 trials
   
     0:30:00: Balanced after 1 trials
   
     0:45:00: Balanced after 6 trials
     0:45:00: Reservoir 2 is closed
     0:45:00: PRV prv_2 changed from active to closed
   
     1:00:00: Balanced after 3 trials
   
     1:15:00: Balanced after 1 trials
   
     1:30:00: Balanced after 1 trials
   
     1:45:00: Balanced after 8 trials
     1:45:00: Reservoir 2 is emptying
     1:45:00: PRV prv_2 changed from closed to active
   
     2:00:00: Balanced after 3 trials
   
     2:15:00: Balanced after 1 trials
   
     2:30:00: Balanced after 1 trials
   
     2:45:00: Balanced after 4 trials
   
     3:00:00: Balanced after 3 trials
   
     3:15:00: Balanced after 1 trials
   
     3:30:00: Balanced after 1 trials
   
     3:45:00: Balanced after 5 trials
   
     4:00:00: Balanced after 3 trials
   
     4:15:00: Balanced after 1 trials
   
   
  Hydraulic Status:
  -----------------------------------------------------------------------
     0:00:00: Balanced after 6 trials
     0:00:00: Reservoir S1 is emptying
     0:00:00: Reservoir 2 is emptying
   
     0:15:00: Balanced after 1 trials
   
     0:30:00: Balanced after 1 trials
   
     0:45:00: Balanced after 6 trials
     0:45:00: Reservoir 2 is closed
     0:45:00: PRV prv_2 changed from active to closed
   
     1:00:00: Balanced after 3 trials
   
     1:15:00: Balanced after 1 trials
   
     1:30:00: Balanced after 1 trials
   
     1:45:00: Balanced after 8 trials
     1:45:00: Reservoir 2 is emptying
     1:45:00: PRV prv_2 changed from closed to active
   
     2:00:00: Balanced after 3 trials
   
     2:15:00: Balanced after 1 trials
   
     2:30:00: Balanced after 1 trials
   
     2:45:00: Balanced after 4 trials
   
     3:00:00: Balanced after 3 trials
   
     3:15:00: Balanced after 1 trials
   
     3:30:00: Balanced after 1 trials
   
     3:45:00: Balanced after 5 trials
   
     4:00:00: Balanced after 3 trials
   
     4:15:00: Balanced after 1 trials
   
   
  Hydraulic Status:
  -----------------------------------------------------------------------
     0:00:00: Balanced after 6 trials
     0:00:00: Reservoir S1 is emptying
     0:00:00: Reservoir 2 is emptying
   
     0:15:00: Balanced after 1 trials
   
     0:30:00: Balanced after 1 trials
   
     0:45:00: Balanced after 6 trials
     0:45:00: Reservoir 2 is closed
     0:45:00: PRV prv_2 changed from active to closed
   
     1:00:00: Balanced after 3 trials
   
     1:15:00: Balanced after 1 trials
   
     1:30:00: Balanced after 1 trials
   
     1:45:00: Balanced after 8 trials
     1:45:00: Reservoir 2 is emptying
     1:45:00: PRV prv_2 changed from closed to active
   
     2:00:00: Balanced after 3 trials
   
     2:15:00: Balanced after 1 trials
   
     2:30:00: Balanced after 1 trials
   
     2:45:00: Balanced after 4 trials
   
     3:00:00: Balanced after 3 trials
   
     3:15:00: Balanced after 1 trials
   
     3:30:00: Balanced after 1 trials
   
     3:45:00: Balanced after 5 trials
   
     4:00:00: Balanced after 3 trials
   
     4:15:00: Balanced after 1 trials
   
   
  Hydraulic Status:
  -----------------------------------------------------------------------
     0:00:00: Balanced after 6 trials
     0:00:00: Reservoir S1 is emptying
     0:00:00: Reservoir 2 is emptying
   
     0:15:00: Balanced after 1 trials
   
     0:30:00: Balanced after 1 trials
   
     0:45:00: Balanced after 6 trials
     0:45:00: Reservoir 2 is closed
     0:45:00: PRV prv_2 changed from active to closed
   
     1:00:00: Balanced after 3 trials
   
     1:15:00: Balanced after 1 trials
   
     1:30:00: Balanced after 1 trials
   
     1:45:00: Balanced after 8 trials
     1:45:00: Reservoir 2 is emptying
     1:45:00: PRV prv_2 changed from closed to active
   
     2:00:00: Balanced after 3 trials
   
     2:15:00: Balanced after 1 trials
   
     2:30:00: Balanced after 1 trials
   
     2:45:00: Balanced after 4 trials
   
     3:00:00: Balanced after 3 trials
   
     3:15:00: Balanced after 1 trials
   
     3:30:00: Balanced after 1 trials
   
     3:45:00: Balanced after 5 trials
   
     4:00:00: Balanced after 3 trials
   
     4:15:00: Balanced after 1 trials
   
   
  Hydraulic Status:
  -----------------------------------------------------------------------
     0:00:00: Balanced after 6 trials
     0:00:00: Reservoir S1 is emptying
     0:00:00: Reservoir 2 is emptying
   
     0:15:00: Balanced after 1 trials
   
     0:30:00: Balanced after 1 trials
   
     0:45:00: Balanced after 5 trials
     0:45:00: Reservoir 2 is closed
     0:45:00: PRV prv_2 changed from active to closed
   
     1:00:00: Balanced after 3 trials
   
     1:15:00: Balanced after 1 trials
   
     1:30:00: Balanced after 1 trials
   
     1:45:00: Balanced after 8 trials
     1:45:00: Reservoir 2 is emptying
     1:45:00: PRV prv_2 changed from closed to active
   
     2:00:00: Balanced after 3 trials
   
     2:15:00: Balanced after 1 trials
   
     2:30:00: Balanced after 1 trials
   
     2:45:00: Balanced after 5 trials
   
     3:00:00: Balanced after 3 trials
   
     3:15:00: Balanced after 1 trials
   
     3:30:00: Balanced after 1 trials
   
     3:45:00: Balanced after 5 trials
   
     4:00:00: Balanced after 3 trials
   
     4:15:00: Balanced after 1 trials
   
   
  Hydraulic Status:
  -----------------------------------------------------------------------
     0:00:00: Balanced after 6 trials
     0:00:00: Reservoir S1 is emptying
     0:00:00: Reservoir 2 is emptying
   
     0:15:00: Balanced after 1 trials
   
     0:30:00: Balanced after 1 trials
   
     0:45:00: Balanced after 7 trials
     0:45:00: Reservoir 2 is closed
     0:45:00: PRV prv_2 changed from active to closed
   
     1:00:00: Balanced after 3 trials
   
     1:15:00: Balanced after 1 trials
   
     1:30:00: Balanced after 1 trials
   
     1:45:00: Balanced after 8 trials
     1:45:00: Reservoir 2 is emptying
     1:45:00: PRV prv_2 changed from closed to active
   
     2:00:00: Balanced after 3 trials
   
     2:15:00: Balanced after 1 trials
   
     2:30:00: Balanced after 1 trials
   
     2:45:00: Balanced after 4 trials
   
     3:00:00: Balanced after 3 trials
   
     3:15:00: Balanced after 1 trials
   
     3:30:00: Balanced after 1 trials
   
     3:45:00: Balanced after 4 trials
   
     4:00:00: Balanced after 3 trials
   
     4:15:00: Balanced after 1 trials
   
   
  Hydraulic Status:
  -----------------------------------------------------------------------
     0:00:00: Balanced after 6 trials
     0:00:00: Reservoir S1 is emptying
     0:00:00: Reservoir 2 is emptying
   
     0:15:00: Balanced after 1 trials
   
     0:30:00: Balanced after 1 trials
   
     0:45:00: Balanced after 7 trials
     0:45:00: Reservoir 2 is closed
     0:45:00: PRV prv_2 changed from active to closed
   
     1:00:00: Balanced after 3 trials
   
     1:15:00: Balanced after 1 trials
   
     1:30:00: Balanced after 1 trials
   
     1:45:00: Balanced after 8 trials
     1:45:00: Reservoir 2 is emptying
     1:45:00: PRV prv_2 changed from closed to active
   
     2:00:00: Balanced after 3 trials
   
     2:15:00: Balanced after 1 trials
   
     2:30:00: Balanced after 1 trials
   
     2:45:00: Balanced after 4 trials
   
     3:00:00: Balanced after 3 trials
   
     3:15:00: Balanced after 1 trials
   
     3:30:00: Balanced after 1 trials
   
     3:45:00: Balanced after 4 trials
   
     4:00:00: Balanced after 3 trials
   
     4:15:00: Balanced after 1 trials
   
   
  Hydraulic Status:
  -----------------------------------------------------------------------
     0:00:00: Balanced after 6 trials
     0:00:00: Reservoir S1 is emptying
     0:00:00: Reservoir 2 is emptying
   
     0:15:00: Balanced after 1 trials
   
     0:30:00: Balanced after 1 trials
   
     0:45:00: Balanced after 6 trials
     0:45:00: Reservoir 2 is closed
     0:45:00: PRV prv_2 changed from active to closed
   
     1:00:00: Balanced after 3 trials
   
     1:15:00: Balanced after 1 trials
   
     1:30:00: Balanced after 1 trials
   
     1:45:00: Balanced after 8 trials
     1:45:00: Reservoir 2 is emptying
     1:45:00: PRV prv_2 changed from closed to active
   
     2:00:00: Balanced after 3 trials
   
     2:15:00: Balanced after 1 trials
   
     2:30:00: Balanced after 1 trials
   
     2:45:00: Balanced after 4 trials
   
     3:00:00: Balanced after 3 trials
   
     3:15:00: Balanced after 1 trials
   
     3:30:00: Balanced after 1 trials
   
     3:45:00: Balanced after 5 trials
   
     4:00:00: Balanced after 3 trials
   
     4:15:00: Balanced after 1 trials
   
   
  Hydraulic Status:
  -----------------------------------------------------------------------
     0:00:00: Balanced after 6 trials
     0:00:00: Reservoir S1 is emptying
     0:00:00: Reservoir 2 is emptying
   
     0:15:00: Balanced after 1 trials
   
     0:30:00: Balanced after 1 trials
   
     0:45:00: Balanced after 6 trials
     0:45:00: Reservoir 2 is closed
     0:45:00: PRV prv_2 changed from active to closed
   
     1:00:00: Balanced after 3 trials
   
     1:15:00: Balanced after 1 trials
   
     1:30:00: Balanced after 1 trials
   
     1:45:00: Balanced after 8 trials
     1:45:00: Reservoir 2 is emptying
     1:45:00: PRV prv_2 changed from closed to active
   
     2:00:00: Balanced after 3 trials
   
     2:15:00: Balanced after 1 trials
   
     2:30:00: Balanced after 1 trials
   
     2:45:00: Balanced after 4 trials
   
     3:00:00: Balanced after 3 trials
   
     3:15:00: Balanced after 1 trials
   
     3:30:00: Balanced after 1 trials
   
     3:45:00: Balanced after 5 trials
   
     4:00:00: Balanced after 3 trials
   
     4:15:00: Balanced after 1 trials
   
   
  Hydraulic Status:
  -----------------------------------------------------------------------
     0:00:00: Balanced after 6 trials
     0:00:00: Reservoir S1 is emptying
     0:00:00: Reservoir 2 is emptying
   
     0:15:00: Balanced after 1 trials
   
     0:30:00: Balanced after 1 trials
   
     0:45:00: Balanced after 6 trials
     0:45:00: Reservoir 2 is closed
     0:45:00: PRV prv_2 changed from active to closed
   
     1:00:00: Balanced after 3 trials
   
     1:15:00: Balanced after 1 trials
   
     1:30:00: Balanced after 1 trials
   
     1:45:00: Balanced after 8 trials
     1:45:00: Reservoir 2 is emptying
     1:45:00: PRV prv_2 changed from closed to active
   
     2:00:00: Balanced after 3 trials
   
     2:15:00: Balanced after 1 trials
   
     2:30:00: Balanced after 1 trials
   
     2:45:00: Balanced after 4 trials
   
     3:00:00: Balanced after 3 trials
   
     3:15:00: Balanced after 1 trials
   
     3:30:00: Balanced after 1 trials
   
     3:45:00: Balanced after 5 trials
   
     4:00:00: Balanced after 3 trials
   
     4:15:00: Balanced after 1 trials
   
   
  Hydraulic Status:
  -----------------------------------------------------------------------
     0:00:00: Balanced after 8 trials
     0:00:00: Reservoir S1 is emptying
     0:00:00: Reservoir 2 is emptying
   
     0:15:00: Balanced after 1 trials
   
     0:30:00: Balanced after 1 trials
   
     0:45:00: Balanced after 6 trials
     0:45:00: Reservoir 2 is closed
     0:45:00: PRV prv_2 changed from active to closed
   
     1:00:00: Balanced after 3 trials
   
     1:15:00: Balanced after 1 trials
   
     1:30:00: Balanced after 1 trials
   
     1:45:00: Balanced after 8 trials
     1:45:00: Reservoir 2 is emptying
     1:45:00: PRV prv_2 changed from closed to active
   
     2:00:00: Balanced after 3 trials
   
     2:15:00: Balanced after 1 trials
   
     2:30:00: Balanced after 1 trials
   
     2:45:00: Balanced after 4 trials
   
     3:00:00: Balanced after 3 trials
   
     3:15:00: Balanced after 1 trials
   
     3:30:00: Balanced after 1 trials
   
     3:45:00: Balanced after 5 trials
   
     4:00:00: Balanced after 3 trials
   
     4:15:00: Balanced after 1 trials
   
   
  Hydraulic Status:
  -----------------------------------------------------------------------
     0:00:00: Balanced after 6 trials
     0:00:00: Reservoir S1 is emptying
     0:00:00: Reservoir 2 is emptying
   
     0:15:00: Balanced after 1 trials
   
     0:30:00: Balanced after 1 trials
   
     0:45:00: Balanced after 6 trials
     0:45:00: Reservoir 2 is closed
     0:45:00: PRV prv_2 changed from active to closed
   
     1:00:00: Balanced after 3 trials
   
     1:15:00: Balanced after 1 trials
   
     1:30:00: Balanced after 1 trials
   
     1:45:00: Balanced after 8 trials
     1:45:00: Reservoir 2 is emptying
     1:45:00: PRV prv_2 changed from closed to active
   
     2:00:00: Balanced after 3 trials
   
     2:15:00: Balanced after 1 trials
   
     2:30:00: Balanced after 1 trials
   
     2:45:00: Balanced after 4 trials
   
     3:00:00: Balanced after 3 trials
   
     3:15:00: Balanced after 1 trials
   
     3:30:00: Balanced after 1 trials
   
     3:45:00: Balanced after 5 trials
   
     4:00:00: Balanced after 3 trials
   
     4:15:00: Balanced after 1 trials
   
   
  Hydraulic Status:
  -----------------------------------------------------------------------
     0:00:00: Balanced after 6 trials
     0:00:00: Reservoir S1 is emptying
     0:00:00: Reservoir 2 is emptying
   
     0:15:00: Balanced after 1 trials
   
     0:30:00: Balanced after 1 trials
   
     0:45:00: Balanced after 6 trials
     0:45:00: Reservoir 2 is closed
     0:45:00: PRV prv_2 changed from active to closed
   
     1:00:00: Balanced after 3 trials
   
     1:15:00: Balanced after 1 trials
   
     1:30:00: Balanced after 1 trials
   
     1:45:00: Balanced after 8 trials
     1:45:00: Reservoir 2 is emptying
     1:45:00: PRV prv_2 changed from closed to active
   
     2:00:00: Balanced after 3 trials
   
     2:15:00: Balanced after 1 trials
   
     2:30:00: Balanced after 1 trials
   
     2:45:00: Balanced after 4 trials
   
     3:00:00: Balanced after 3 trials
   
     3:15:00: Balanced after 1 trials
   
     3:30:00: Balanced after 1 trials
   
     3:45:00: Balanced after 5 trials
   
     4:00:00: Balanced after 3 trials
   
     4:15:00: Balanced after 1 trials
   
   
  Hydraulic Status:
  -----------------------------------------------------------------------
     0:00:00: Balanced after 6 trials
     0:00:00: Reservoir S1 is emptying
     0:00:00: Reservoir 2 is emptying
   
     0:15:00: Balanced after 1 trials
   
     0:30:00: Balanced after 1 trials
   
     0:45:00: Balanced after 5 trials
     0:45:00: Reservoir 2 is closed
     0:45:00: PRV prv_2 changed from active to closed
   
     1:00:00: Balanced after 3 trials
   
     1:15:00: Balanced after 1 trials
   
     1:30:00: Balanced after 1 trials
   
     1:45:00: Balanced after 8 trials
     1:45:00: Reservoir 2 is emptying
     1:45:00: PRV prv_2 changed from closed to active
   
     2:00:00: Balanced after 3 trials
   
     2:15:00: Balanced after 1 trials
   
     2:30:00: Balanced after 1 trials
   
     2:45:00: Balanced after 5 trials
   
     3:00:00: Balanced after 3 trials
   
     3:15:00: Balanced after 1 trials
   
     3:30:00: Balanced after 1 trials
   
     3:45:00: Balanced after 5 trials
   
     4:00:00: Balanced after 3 trials
   
     4:15:00: Balanced after 1 trials
   
   
  Hydraulic Status:
  -----------------------------------------------------------------------
     0:00:00: Balanced after 6 trials
     0:00:00: Reservoir S1 is emptying
     0:00:00: Reservoir 2 is emptying
   
     0:15:00: Balanced after 1 trials
   
     0:30:00: Balanced after 1 trials
   
     0:45:00: Balanced after 6 trials
     0:45:00: Reservoir 2 is closed
     0:45:00: PRV prv_2 changed from active to closed
   
     1:00:00: Balanced after 3 trials
   
     1:15:00: Balanced after 1 trials
   
     1:30:00: Balanced after 1 trials
   
     1:45:00: Balanced after 8 trials
     1:45:00: Reservoir 2 is emptying
     1:45:00: PRV prv_2 changed from closed to active
   
     2:00:00: Balanced after 3 trials
   
     2:15:00: Balanced after 1 trials
   
     2:30:00: Balanced after 1 trials
   
     2:45:00: Balanced after 4 trials
   
     3:00:00: Balanced after 3 trials
   
     3:15:00: Balanced after 1 trials
   
     3:30:00: Balanced after 1 trials
   
     3:45:00: Balanced after 5 trials
   
     4:00:00: Balanced after 3 trials
   
     4:15:00: Balanced after 1 trials
   
   
  Hydraulic Status:
  -----------------------------------------------------------------------
     0:00:00: Balanced after 6 trials
     0:00:00: Reservoir S1 is emptying
     0:00:00: Reservoir 2 is emptying
   
     0:15:00: Balanced after 1 trials
   
     0:30:00: Balanced after 1 trials
   
     0:45:00: Balanced after 6 trials
     0:45:00: Reservoir 2 is closed
     0:45:00: PRV prv_2 changed from active to closed
   
     1:00:00: Balanced after 3 trials
   
     1:15:00: Balanced after 1 trials
   
     1:30:00: Balanced after 1 trials
   
     1:45:00: Balanced after 8 trials
     1:45:00: Reservoir 2 is emptying
     1:45:00: PRV prv_2 changed from closed to active
   
     2:00:00: Balanced after 3 trials
   
     2:15:00: Balanced after 1 trials
   
     2:30:00: Balanced after 1 trials
   
     2:45:00: Balanced after 4 trials
   
     3:00:00: Balanced after 3 trials
   
     3:15:00: Balanced after 1 trials
   
     3:30:00: Balanced after 1 trials
   
     3:45:00: Balanced after 5 trials
   
     4:00:00: Balanced after 3 trials
   
     4:15:00: Balanced after 1 trials
   
   
  Hydraulic Status:
  -----------------------------------------------------------------------
     0:00:00: Balanced after 6 trials
     0:00:00: Reservoir S1 is emptying
     0:00:00: Reservoir 2 is emptying
   
     0:15:00: Balanced after 1 trials
   
     0:30:00: Balanced after 1 trials
   
     0:45:00: Balanced after 6 trials
     0:45:00: Reservoir 2 is closed
     0:45:00: PRV prv_2 changed from active to closed
   
     1:00:00: Balanced after 3 trials
   
     1:15:00: Balanced after 1 trials
   
     1:30:00: Balanced after 1 trials
   
     1:45:00: Balanced after 8 trials
     1:45:00: Reservoir 2 is emptying
     1:45:00: PRV prv_2 changed from closed to active
   
     2:00:00: Balanced after 3 trials
   
     2:15:00: Balanced after 1 trials
   
     2:30:00: Balanced after 1 trials
   
     2:45:00: Balanced after 4 trials
   
     3:00:00: Balanced after 3 trials
   
     3:15:00: Balanced after 1 trials
   
     3:30:00: Balanced after 1 trials
   
     3:45:00: Balanced after 5 trials
   
     4:00:00: Balanced after 3 trials
   
     4:15:00: Balanced after 1 trials
   
   
  Hydraulic Status:
  -----------------------------------------------------------------------
     0:00:00: Balanced after 6 trials
     0:00:00: Reservoir S1 is emptying
     0:00:00: Reservoir 2 is emptying
   
     0:15:00: Balanced after 1 trials
   
     0:30:00: Balanced after 1 trials
   
     0:45:00: Balanced after 7 trials
     0:45:00: Reservoir 2 is closed
     0:45:00: PRV prv_2 changed from active to closed
   
     1:00:00: Balanced after 3 trials
   
     1:15:00: Balanced after 1 trials
   
     1:30:00: Balanced after 1 trials
   
     1:45:00: Balanced after 8 trials
     1:45:00: Reservoir 2 is emptying
     1:45:00: PRV prv_2 changed from closed to active
   
     2:00:00: Balanced after 3 trials
   
     2:15:00: Balanced after 1 trials
   
     2:30:00: Balanced after 1 trials
   
     2:45:00: Balanced after 4 trials
   
     3:00:00: Balanced after 3 trials
   
     3:15:00: Balanced after 1 trials
   
     3:30:00: Balanced after 1 trials
   
     3:45:00: Balanced after 4 trials
   
     4:00:00: Balanced after 3 trials
   
     4:15:00: Balanced after 1 trials
   
   
  Hydraulic Status:
  -----------------------------------------------------------------------
     0:00:00: Balanced after 6 trials
     0:00:00: Reservoir S1 is emptying
     0:00:00: Reservoir 2 is emptying
   
     0:15:00: Balanced after 1 trials
   
     0:30:00: Balanced after 1 trials
   
     0:45:00: Balanced after 6 trials
     0:45:00: Reservoir 2 is closed
     0:45:00: PRV prv_2 changed from active to closed
   
     1:00:00: Balanced after 3 trials
   
     1:15:00: Balanced after 1 trials
   
     1:30:00: Balanced after 1 trials
   
     1:45:00: Balanced after 8 trials
     1:45:00: Reservoir 2 is emptying
     1:45:00: PRV prv_2 changed from closed to active
   
     2:00:00: Balanced after 3 trials
   
     2:15:00: Balanced after 1 trials
   
     2:30:00: Balanced after 1 trials
   
     2:45:00: Balanced after 4 trials
   
     3:00:00: Balanced after 3 trials
   
     3:15:00: Balanced after 1 trials
   
     3:30:00: Balanced after 1 trials
   
     3:45:00: Balanced after 5 trials
   
     4:00:00: Balanced after 3 trials
   
     4:15:00: Balanced after 1 trials
   
   
  Hydraulic Status:
  -----------------------------------------------------------------------
     0:00:00: Balanced after 6 trials
     0:00:00: Reservoir S1 is emptying
     0:00:00: Reservoir 2 is emptying
   
     0:15:00: Balanced after 1 trials
   
     0:30:00: Balanced after 1 trials
   
     0:45:00: Balanced after 6 trials
     0:45:00: Reservoir 2 is closed
     0:45:00: PRV prv_2 changed from active to closed
   
     1:00:00: Balanced after 3 trials
   
     1:15:00: Balanced after 1 trials
   
     1:30:00: Balanced after 1 trials
   
     1:45:00: Balanced after 8 trials
     1:45:00: Reservoir 2 is emptying
     1:45:00: PRV prv_2 changed from closed to active
   
     2:00:00: Balanced after 3 trials
   
     2:15:00: Balanced after 1 trials
   
     2:30:00: Balanced after 1 trials
   
     2:45:00: Balanced after 5 trials
   
     3:00:00: Balanced after 3 trials
   
     3:15:00: Balanced after 1 trials
   
     3:30:00: Balanced after 1 trials
   
     3:45:00: Balanced after 5 trials
   
     4:00:00: Balanced after 3 trials
   
     4:15:00: Balanced after 1 trials
   
   
  Hydraulic Status:
  -----------------------------------------------------------------------
     0:00:00: Balanced after 8 trials
     0:00:00: Reservoir S1 is emptying
     0:00:00: Reservoir 2 is emptying
   
     0:15:00: Balanced after 1 trials
   
     0:30:00: Balanced after 1 trials
   
     0:45:00: Balanced after 5 trials
     0:45:00: Reservoir 2 is closed
     0:45:00: PRV prv_2 changed from active to closed
   
     1:00:00: Balanced after 3 trials
   
     1:15:00: Balanced after 1 trials
   
     1:30:00: Balanced after 1 trials
   
     1:45:00: Balanced after 8 trials
     1:45:00: Reservoir 2 is emptying
     1:45:00: PRV prv_2 changed from closed to active
   
     2:00:00: Balanced after 3 trials
   
     2:15:00: Balanced after 1 trials
   
     2:30:00: Balanced after 1 trials
   
     2:45:00: Balanced after 5 trials
   
     3:00:00: Balanced after 3 trials
   
     3:15:00: Balanced after 1 trials
   
     3:30:00: Balanced after 1 trials
   
     3:45:00: Balanced after 1 trials
   
     4:00:00: Balanced after 3 trials
   
     4:15:00: Balanced after 1 trials
   
   
  Hydraulic Status:
  -----------------------------------------------------------------------
     0:00:00: Balanced after 6 trials
     0:00:00: Reservoir S1 is emptying
     0:00:00: Reservoir 2 is emptying
   
     0:15:00: Balanced after 1 trials
   
     0:30:00: Balanced after 1 trials
   
     0:45:00: Balanced after 5 trials
     0:45:00: Reservoir 2 is closed
     0:45:00: PRV prv_2 changed from active to closed
   
     1:00:00: Balanced after 3 trials
   
     1:15:00: Balanced after 1 trials
   
     1:30:00: Balanced after 1 trials
   
     1:45:00: Balanced after 8 trials
     1:45:00: Reservoir 2 is emptying
     1:45:00: PRV prv_2 changed from closed to active
   
     2:00:00: Balanced after 3 trials
   
     2:15:00: Balanced after 1 trials
   
     2:30:00: Balanced after 1 trials
   
     2:45:00: Balanced after 5 trials
   
     3:00:00: Balanced after 3 trials
   
     3:15:00: Balanced after 1 trials
   
     3:30:00: Balanced after 1 trials
   
     3:45:00: Balanced after 1 trials
   
     4:00:00: Balanced after 3 trials
   
     4:15:00: Balanced after 1 trials
   
   
  Hydraulic Status:
  -----------------------------------------------------------------------
     0:00:00: Balanced after 6 trials
     0:00:00: Reservoir S1 is emptying
     0:00:00: Reservoir 2 is emptying
   
     0:15:00: Balanced after 1 trials
   
     0:30:00: Balanced after 1 trials
   
     0:45:00: Balanced after 5 trials
     0:45:00: Reservoir 2 is closed
     0:45:00: PRV prv_2 changed from active to closed
   
     1:00:00: Balanced after 3 trials
   
     1:15:00: Balanced after 1 trials
   
     1:30:00: Balanced after 1 trials
   
     1:45:00: Balanced after 8 trials
     1:45:00: Reservoir 2 is emptying
     1:45:00: PRV prv_2 changed from closed to active
   
     2:00:00: Balanced after 3 trials
   
     2:15:00: Balanced after 1 trials
   
     2:30:00: Balanced after 1 trials
   
     2:45:00: Balanced after 5 trials
   
     3:00:00: Balanced after 3 trials
   
     3:15:00: Balanced after 1 trials
   
     3:30:00: Balanced after 1 trials
   
     3:45:00: Balanced after 1 trials
   
     4:00:00: Balanced after 3 trials
   
     4:15:00: Balanced after 1 trials
   
   
  Hydraulic Status:
  -----------------------------------------------------------------------
     0:00:00: Balanced after 5 trials
     0:00:00: Reservoir S1 is emptying
     0:00:00: Reservoir 2 is emptying
   
     0:15:00: Balanced after 1 trials
   
     0:30:00: Balanced after 1 trials
   
     0:45:00: Balanced after 5 trials
     0:45:00: Reservoir 2 is closed
     0:45:00: PRV prv_2 changed from active to closed
   
     1:00:00: Balanced after 3 trials
   
     1:15:00: Balanced after 1 trials
   
     1:30:00: Balanced after 1 trials
   
     1:45:00: Balanced after 8 trials
     1:45:00: Reservoir 2 is emptying
     1:45:00: PRV prv_2 changed from closed to active
   
     2:00:00: Balanced after 3 trials
   
     2:15:00: Balanced after 1 trials
   
     2:30:00: Balanced after 1 trials
   
     2:45:00: Balanced after 4 trials
   
     3:00:00: Balanced after 3 trials
   
     3:15:00: Balanced after 1 trials
   
     3:30:00: Balanced after 1 trials
   
     3:45:00: Balanced after 1 trials
   
     4:00:00: Balanced after 3 trials
   
     4:15:00: Balanced after 1 trials
   
   
  Hydraulic Status:
  -----------------------------------------------------------------------
     0:00:00: Balanced after 5 trials
     0:00:00: Reservoir S1 is emptying
     0:00:00: Reservoir 2 is emptying
   
     0:15:00: Balanced after 1 trials
   
     0:30:00: Balanced after 1 trials
   
     0:45:00: Balanced after 5 trials
     0:45:00: Reservoir 2 is closed
     0:45:00: PRV prv_2 changed from active to closed
   
     1:00:00: Balanced after 3 trials
   
     1:15:00: Balanced after 1 trials
   
     1:30:00: Balanced after 1 trials
   
     1:45:00: Balanced after 7 trials
     1:45:00: Reservoir 2 is emptying
     1:45:00: PRV prv_2 changed from closed to active
   
     2:00:00: Balanced after 3 trials
   
     2:15:00: Balanced after 1 trials
   
     2:30:00: Balanced after 1 trials
   
     2:45:00: Balanced after 4 trials
   
     3:00:00: Balanced after 3 trials
   
     3:15:00: Balanced after 1 trials
   
     3:30:00: Balanced after 1 trials
   
     3:45:00: Balanced after 1 trials
   
     4:00:00: Balanced after 3 trials
   
     4:15:00: Balanced after 1 trials
   
   
  Hydraulic Status:
  -----------------------------------------------------------------------
     0:00:00: Balanced after 5 trials
     0:00:00: Reservoir S1 is emptying
     0:00:00: Reservoir 2 is emptying
   
     0:15:00: Balanced after 1 trials
   
     0:30:00: Balanced after 1 trials
   
     0:45:00: Balanced after 5 trials
     0:45:00: Reservoir 2 is closed
     0:45:00: PRV prv_2 changed from active to closed
   
     1:00:00: Balanced after 3 trials
   
     1:15:00: Balanced after 1 trials
   
     1:30:00: Balanced after 1 trials
   
     1:45:00: Balanced after 8 trials
     1:45:00: Reservoir 2 is emptying
     1:45:00: PRV prv_2 changed from closed to active
   
     2:00:00: Balanced after 3 trials
   
     2:15:00: Balanced after 1 trials
   
     2:30:00: Balanced after 1 trials
   
     2:45:00: Balanced after 5 trials
   
     3:00:00: Balanced after 3 trials
   
     3:15:00: Balanced after 1 trials
   
     3:30:00: Balanced after 1 trials
   
     3:45:00: Balanced after 1 trials
   
     4:00:00: Balanced after 3 trials
   
     4:15:00: Balanced after 1 trials
   
   
  Hydraulic Status:
  -----------------------------------------------------------------------
     0:00:00: Balanced after 5 trials
     0:00:00: Reservoir S1 is emptying
     0:00:00: Reservoir 2 is emptying
   
     0:15:00: Balanced after 1 trials
   
     0:30:00: Balanced after 1 trials
   
     0:45:00: Balanced after 5 trials
     0:45:00: Reservoir 2 is closed
     0:45:00: PRV prv_2 changed from active to closed
   
     1:00:00: Balanced after 3 trials
   
     1:15:00: Balanced after 1 trials
   
     1:30:00: Balanced after 1 trials
   
     1:45:00: Balanced after 8 trials
     1:45:00: Reservoir 2 is emptying
     1:45:00: PRV prv_2 changed from closed to active
   
     2:00:00: Balanced after 3 trials
   
     2:15:00: Balanced after 1 trials
   
     2:30:00: Balanced after 1 trials
   
     2:45:00: Balanced after 4 trials
   
     3:00:00: Balanced after 3 trials
   
     3:15:00: Balanced after 1 trials
   
     3:30:00: Balanced after 1 trials
   
     3:45:00: Balanced after 1 trials
   
     4:00:00: Balanced after 3 trials
   
     4:15:00: Balanced after 1 trials
   
   
  Hydraulic Status:
  -----------------------------------------------------------------------
[...]
   
  Hydraulic Status:
  -----------------------------------------------------------------------
     0:00:00: Balanced after 6 trials
     0:00:00: Reservoir S1 is emptying
     0:00:00: Reservoir 2 is emptying
   
     0:15:00: Balanced after 1 trials
   
     0:30:00: Balanced after 1 trials
   
     0:45:00: Balanced after 7 trials
     0:45:00: Reservoir 2 is closed
     0:45:00: PRV prv_2 changed from active to closed
   
     1:00:00: Balanced after 3 trials
   
     1:15:00: Balanced after 1 trials
   
     1:30:00: Balanced after 1 trials
   
     1:45:00: Balanced after 8 trials
     1:45:00: Reservoir 2 is emptying
     1:45:00: PRV prv_2 changed from closed to active
   
     2:00:00: Balanced after 3 trials
   
     2:15:00: Balanced after 1 trials
   
     2:30:00: Balanced after 1 trials
   
     2:45:00: Balanced after 4 trials
   
     3:00:00: Balanced after 3 trials
   
     3:15:00: Balanced after 1 trials
   
     3:30:00: Balanced after 1 trials
   
     3:45:00: Balanced after 4 trials
   
     4:00:00: Balanced after 3 trials
   
     4:15:00: Balanced after 1 trials
   
   
  Hydraulic Status:
  -----------------------------------------------------------------------
     0:00:00: Balanced after 6 trials
     0:00:00: Reservoir S1 is emptying
     0:00:00: Reservoir 2 is emptying
   
     0:15:00: Balanced after 1 trials
   
     0:30:00: Balanced after 1 trials
   
     0:45:00: Balanced after 6 trials
     0:45:00: Reservoir 2 is closed
     0:45:00: PRV prv_2 changed from active to closed
   
     1:00:00: Balanced after 3 trials
   
     1:15:00: Balanced after 1 trials
   
     1:30:00: Balanced after 1 trials
   
     1:45:00: Balanced after 6 trials
     1:45:00: Reservoir 2 is emptying
     1:45:00: PRV prv_2 changed from closed to active
   
     2:00:00: Balanced after 3 trials
   
     2:15:00: Balanced after 1 trials
   
     2:30:00: Balanced after 1 trials
   
     2:45:00: Balanced after 4 trials
   
     3:00:00: Balanced after 3 trials
   
     3:15:00: Balanced after 1 trials
   
     3:30:00: Balanced after 1 trials
   
     3:45:00: Balanced after 5 trials
   
     4:00:00: Balanced after 3 trials
   
     4:15:00: Balanced after 1 trials
   
   
  Hydraulic Status:
  -----------------------------------------------------------------------
     0:00:00: Balanced after 6 trials
     0:00:00: Reservoir S1 is emptying
     0:00:00: Reservoir 2 is emptying
   
     0:15:00: Balanced after 1 trials
   
     0:30:00: Balanced after 1 trials
   
     0:45:00: Balanced after 6 trials
     0:45:00: Reservoir 2 is closed
     0:45:00: PRV prv_2 changed from active to closed
   
     1:00:00: Balanced after 3 trials
   
     1:15:00: Balanced after 1 trials
   
     1:30:00: Balanced after 1 trials
   
     1:45:00: Balanced after 6 trials
     1:45:00: Reservoir 2 is emptying
     1:45:00: PRV prv_2 changed from closed to active
   
     2:00:00: Balanced after 3 trials
   
     2:15:00: Balanced after 1 trials
   
     2:30:00: Balanced after 1 trials
   
     2:45:00: Balanced after 4 trials
   
     3:00:00: Balanced after 3 trials
   
     3:15:00: Balanced after 1 trials
   
     3:30:00: Balanced after 1 trials
   
     3:45:00: Balanced after 5 trials
   
     4:00:00: Balanced after 3 trials
   
     4:15:00: Balanced after 1 trials
   
   
  Hydraulic Status:
  -----------------------------------------------------------------------
     0:00:00: Balanced after 6 trials
     0:00:00: Reservoir S1 is emptying
     0:00:00: Reservoir 2 is emptying
   
     0:15:00: Balanced after 1 trials
   
     0:30:00: Balanced after 1 trials
   
     0:45:00: Balanced after 6 trials
     0:45:00: Reservoir 2 is closed
     0:45:00: PRV prv_2 changed from active to closed
   
     1:00:00: Balanced after 3 trials
   
     1:15:00: Balanced after 1 trials
   
     1:30:00: Balanced after 1 trials
   
     1:45:00: Balanced after 6 trials
     1:45:00: Reservoir 2 is emptying
     1:45:00: PRV prv_2 changed from closed to active
   
     2:00:00: Balanced after 3 trials
   
     2:15:00: Balanced after 1 trials
   
     2:30:00: Balanced after 1 trials
   
     2:45:00: Balanced after 4 trials
   
     3:00:00: Balanced after 3 trials
   
     3:15:00: Balanced after 1 trials
   
     3:30:00: Balanced after 1 trials
   
     3:45:00: Balanced after 5 trials
   
     4:00:00: Balanced after 3 trials
   
     4:15:00: Balanced after 1 trials
   
   
  Hydraulic Status:
  -----------------------------------------------------------------------
     0:00:00: Balanced after 6 trials
     0:00:00: Reservoir S1 is emptying
     0:00:00: Reservoir 2 is emptying
   
     0:15:00: Balanced after 1 trials
   
     0:30:00: Balanced after 1 trials
   
     0:45:00: Balanced after 5 trials
     0:45:00: Reservoir 2 is closed
     0:45:00: PRV prv_2 changed from active to closed
   
  WARNING: Negative pressures at 0:45:00 hrs.
  
     1:00:00: Balanced after 3 trials
   
  WARNING: Negative pressures at 1:00:00 hrs.
  
     1:15:00: Balanced after 1 trials
   
  WARNING: Negative pressures at 1:15:00 hrs.
  
     1:30:00: Balanced after 1 trials
   
  WARNING: Negative pressures at 1:30:00 hrs.
  
     1:45:00: Balanced after 8 trials
     1:45:00: Reservoir 2 is emptying
     1:45:00: PRV prv_2 changed from closed to active
   
  WARNING: Negative pressures at 1:45:00 hrs.
  
     2:00:00: Balanced after 3 trials
   
  WARNING: Negative pressures at 2:00:00 hrs.
  
     2:15:00: Balanced after 1 trials
   
  WARNING: Negative pressures at 2:15:00 hrs.
  
     2:30:00: Balanced after 1 trials
   
  WARNING: Negative pressures at 2:30:00 hrs.
  
     2:45:00: Balanced after 4 trials
   
  WARNING: Negative pressures at 2:45:00 hrs.
  
     3:00:00: Balanced after 3 trials
   
  WARNING: Negative pressures at 3:00:00 hrs.
  
     3:15:00: Balanced after 1 trials
   
  WARNING: Negative pressures at 3:15:00 hrs.
  
     3:30:00: Balanced after 1 trials
   
  WARNING: Negative pressures at 3:30:00 hrs.
  
     3:45:00: Balanced after 4 trials
   
     4:00:00: Balanced after 3 trials
   
     4:15:00: Balanced after 1 trials
   
   
  Hydraulic Status:
  -----------------------------------------------------------------------
     0:00:00: Balanced after 6 trials
     0:00:00: Reservoir S1 is emptying
     0:00:00: Reservoir 2 is emptying
   
     0:15:00: Balanced after 1 trials
   
     0:30:00: Balanced after 1 trials
   
     0:45:00: Balanced after 5 trials
     0:45:00: Reservoir 2 is closed
     0:45:00: PRV prv_2 changed from active to closed
   
  WARNING: Negative pressures at 0:45:00 hrs.
  
     1:00:00: Balanced after 3 trials
   
  WARNING: Negative pressures at 1:00:00 hrs.
  
     1:15:00: Balanced after 1 trials
   
  WARNING: Negative pressures at 1:15:00 hrs.
  
     1:30:00: Balanced after 1 trials
   
  WARNING: Negative pressures at 1:30:00 hrs.
  
     1:45:00: Balanced after 8 trials
     1:45:00: Reservoir 2 is emptying
     1:45:00: PRV prv_2 changed from closed to active
   
  WARNING: Negative pressures at 1:45:00 hrs.
  
     2:00:00: Balanced after 3 trials
   
  WARNING: Negative pressures at 2:00:00 hrs.
  
     2:15:00: Balanced after 1 trials
   
  WARNING: Negative pressures at 2:15:00 hrs.
  
     2:30:00: Balanced after 1 trials
   
  WARNING: Negative pressures at 2:30:00 hrs.
  
     2:45:00: Balanced after 4 trials
   
  WARNING: Negative pressures at 2:45:00 hrs.
  
     3:00:00: Balanced after 3 trials
   
  WARNING: Negative pressures at 3:00:00 hrs.
  
     3:15:00: Balanced after 1 trials
   
  WARNING: Negative pressures at 3:15:00 hrs.
  
     3:30:00: Balanced after 1 trials
   
  WARNING: Negative pressures at 3:30:00 hrs.
  
     3:45:00: Balanced after 4 trials
   
     4:00:00: Balanced after 3 trials
   
     4:15:00: Balanced after 1 trials
   
   
  Hydraulic Status:
  -----------------------------------------------------------------------
     0:00:00: Balanced after 6 trials
     0:00:00: Reservoir S1 is emptying
     0:00:00: Reservoir 2 is emptying
   
     0:15:00: Balanced after 1 trials
   
     0:30:00: Balanced after 1 trials
   
     0:45:00: Balanced after 7 trials
   
  WARNING: Negative pressures at 0:45:00 hrs.
  
     1:00:00: Balanced after 3 trials
   
  WARNING: Negative pressures at 1:00:00 hrs.
  
     1:15:00: Balanced after 1 trials
   
  WARNING: Negative pressures at 1:15:00 hrs.
  
     1:30:00: Balanced after 1 trials
   
  WARNING: Negative pressures at 1:30:00 hrs.
  
     1:45:00: Balanced after 4 trials
   
  WARNING: Negative pressures at 1:45:00 hrs.
  
     2:00:00: Balanced after 3 trials
   
  WARNING: Negative pressures at 2:00:00 hrs.
  
     2:15:00: Balanced after 1 trials
   
  WARNING: Negative pressures at 2:15:00 hrs.
  
     2:30:00: Balanced after 1 trials
   
  WARNING: Negative pressures at 2:30:00 hrs.
  
     2:45:00: Balanced after 4 trials
   
  WARNING: Negative pressures at 2:45:00 hrs.
  
     3:00:00: Balanced after 3 trials
   
  WARNING: Negative pressures at 3:00:00 hrs.
  
     3:15:00: Balanced after 1 trials
   
  WARNING: Negative pressures at 3:15:00 hrs.
  
     3:30:00: Balanced after 1 trials
   
  WARNING: Negative pressures at 3:30:00 hrs.
  
     3:45:00: Balanced after 5 trials
   
     4:00:00: Balanced after 3 trials
   
     4:15:00: Balanced after 1 trials
   
   
  Hydraulic Status:
  -----------------------------------------------------------------------
     0:00:00: Balanced after 6 trials
     0:00:00: Reservoir S1 is emptying
     0:00:00: Reservoir 2 is emptying
   
     0:15:00: Balanced after 1 trials
   
     0:30:00: Balanced after 1 trials
   
     0:45:00: Balanced after 5 trials
     0:45:00: Reservoir 2 is closed
     0:45:00: PRV prv_2 changed from active to closed
   
     1:00:00: Balanced after 3 trials
   
     1:15:00: Balanced after 1 trials
   
     1:30:00: Balanced after 1 trials
   
     1:45:00: Balanced after 8 trials
     1:45:00: Reservoir 2 is emptying
     1:45:00: PRV prv_2 changed from closed to active
   
     2:00:00: Balanced after 3 trials
   
     2:15:00: Balanced after 1 trials
   
     2:30:00: Balanced after 1 trials
   
     2:45:00: Balanced after 4 trials
   
     3:00:00: Balanced after 3 trials
   
     3:15:00: Balanced after 1 trials
   
     3:30:00: Balanced after 1 trials
   
     3:45:00: Balanced after 4 trials
   
     4:00:00: Balanced after 3 trials
   
     4:15:00: Balanced after 1 trials
   
   
  Hydraulic Status:
  -----------------------------------------------------------------------
     0:00:00: Balanced after 6 trials
     0:00:00: Reservoir S1 is emptying
     0:00:00: Reservoir 2 is emptying
   
     0:15:00: Balanced after 1 trials
   
     0:30:00: Balanced after 1 trials
   
     0:45:00: Balanced after 5 trials
     0:45:00: Reservoir 2 is closed
     0:45:00: PRV prv_2 changed from active to closed
   
     1:00:00: Balanced after 3 trials
   
     1:15:00: Balanced after 1 trials
   
     1:30:00: Balanced after 1 trials
   
     1:45:00: Balanced after 8 trials
     1:45:00: Reservoir 2 is emptying
     1:45:00: PRV prv_2 changed from closed to active
   
     2:00:00: Balanced after 3 trials
   
     2:15:00: Balanced after 1 trials
   
     2:30:00: Balanced after 1 trials
   
     2:45:00: Balanced after 4 trials
   
     3:00:00: Balanced after 3 trials
   
     3:15:00: Balanced after 1 trials
   
     3:30:00: Balanced after 1 trials
   
     3:45:00: Balanced after 4 trials
   
     4:00:00: Balanced after 3 trials
   
     4:15:00: Balanced after 1 trials
   
   
  Hydraulic Status:
  -----------------------------------------------------------------------
     0:00:00: Balanced after 6 trials
     0:00:00: Reservoir S1 is emptying
     0:00:00: Reservoir 2 is emptying
   
     0:15:00: Balanced after 1 trials
   
     0:30:00: Balanced after 1 trials
   
     0:45:00: Balanced after 5 trials
     0:45:00: Reservoir 2 is closed
     0:45:00: PRV prv_2 changed from active to closed
   
     1:00:00: Balanced after 3 trials
   
     1:15:00: Balanced after 1 trials
   
     1:30:00: Balanced after 1 trials
   
     1:45:00: Balanced after 8 trials
     1:45:00: Reservoir 2 is emptying
     1:45:00: PRV prv_2 changed from closed to active
   
     2:00:00: Balanced after 3 trials
   
     2:15:00: Balanced after 1 trials
   
     2:30:00: Balanced after 1 trials
   
     2:45:00: Balanced after 5 trials
   
     3:00:00: Balanced after 3 trials
   
     3:15:00: Balanced after 1 trials
   
     3:30:00: Balanced after 1 trials
   
     3:45:00: Balanced after 2 trials
   
     4:00:00: Balanced after 3 trials
   
     4:15:00: Balanced after 1 trials
   
   
  Hydraulic Status:
  -----------------------------------------------------------------------
     0:00:00: Balanced after 6 trials
     0:00:00: Reservoir S1 is emptying
     0:00:00: Reservoir 2 is emptying
   
     0:15:00: Balanced after 1 trials
   
     0:30:00: Balanced after 1 trials
   
     0:45:00: Balanced after 5 trials
     0:45:00: Reservoir 2 is closed
     0:45:00: PRV prv_2 changed from active to closed
   
     1:00:00: Balanced after 3 trials
   
     1:15:00: Balanced after 1 trials
   
     1:30:00: Balanced after 1 trials
   
     1:45:00: Balanced after 10 trials
     1:45:00: Reservoir 2 is emptying
     1:45:00: PRV prv_2 changed from closed to active
   
     2:00:00: Balanced after 3 trials
   
     2:15:00: Balanced after 1 trials
   
     2:30:00: Balanced after 1 trials
   
     2:45:00: Balanced after 5 trials
   
     3:00:00: Balanced after 3 trials
   
     3:15:00: Balanced after 1 trials
   
     3:30:00: Balanced after 1 trials
   
     3:45:00: Balanced after 2 trials
   
     4:00:00: Balanced after 3 trials
   
     4:15:00: Balanced after 1 trials
   
   
  Hydraulic Status:
  -----------------------------------------------------------------------
     0:00:00: Balanced after 6 trials
     0:00:00: Reservoir S1 is emptying
     0:00:00: Reservoir 2 is emptying
   
     0:15:00: Balanced after 1 trials
   
     0:30:00: Balanced after 1 trials
   
     0:45:00: Balanced after 5 trials
     0:45:00: Reservoir 2 is closed
     0:45:00: PRV prv_2 changed from active to closed
   
     1:00:00: Balanced after 3 trials
   
     1:15:00: Balanced after 1 trials
   
     1:30:00: Balanced after 1 trials
   
     1:45:00: Balanced after 8 trials
     1:45:00: Reservoir 2 is emptying
     1:45:00: PRV prv_2 changed from closed to active
   
     2:00:00: Balanced after 3 trials
   
     2:15:00: Balanced after 1 trials
   
     2:30:00: Balanced after 1 trials
   
     2:45:00: Balanced after 4 trials
   
     3:00:00: Balanced after 3 trials
   
     3:15:00: Balanced after 1 trials
   
     3:30:00: Balanced after 1 trials
   
     3:45:00: Balanced after 4 trials
   
     4:00:00: Balanced after 3 trials
   
     4:15:00: Balanced after 1 trials
   
   
  Hydraulic Status:
  -----------------------------------------------------------------------
     0:00:00: Balanced after 6 trials
     0:00:00: Reservoir S1 is emptying
     0:00:00: Reservoir 2 is emptying
   
     0:15:00: Balanced after 1 trials
   
     0:30:00: Balanced after 1 trials
   
     0:45:00: Balanced after 6 trials
     0:45:00: Reservoir 2 is closed
     0:45:00: PRV prv_2 changed from active to closed
   
     1:00:00: Balanced after 3 trials
   
     1:15:00: Balanced after 1 trials
   
     1:30:00: Balanced after 1 trials
   
     1:45:00: Balanced after 6 trials
     1:45:00: Reservoir 2 is emptying
     1:45:00: PRV prv_2 changed from closed to active
   
     2:00:00: Balanced after 3 trials
   
     2:15:00: Balanced after 1 trials
   
     2:30:00: Balanced after 1 trials
   
     2:45:00: Balanced after 4 trials
   
     3:00:00: Balanced after 3 trials
   
     3:15:00: Balanced after 1 trials
   
     3:30:00: Balanced after 1 trials
   
     3:45:00: Balanced after 5 trials
   
     4:00:00: Balanced after 3 trials
   
     4:15:00: Balanced after 1 trials
   
   
  Hydraulic Status:
  -----------------------------------------------------------------------
     0:00:00: Balanced after 6 trials
     0:00:00: Reservoir S1 is emptying
     0:00:00: Reservoir 2 is emptying
   
     0:15:00: Balanced after 1 trials
   
     0:30:00: Balanced after 1 trials
   
     0:45:00: Balanced after 6 trials
     0:45:00: Reservoir 2 is closed
     0:45:00: PRV prv_2 changed from active to closed
   
     1:00:00: Balanced after 3 trials
   
     1:15:00: Balanced after 1 trials
   
     1:30:00: Balanced after 1 trials
   
     1:45:00: Balanced after 7 trials
     1:45:00: Reservoir 2 is emptying
     1:45:00: PRV prv_2 changed from closed to active
   
     2:00:00: Balanced after 3 trials
   
     2:15:00: Balanced after 1 trials
   
     2:30:00: Balanced after 1 trials
   
     2:45:00: Balanced after 4 trials
   
     3:00:00: Balanced after 3 trials
   
     3:15:00: Balanced after 1 trials
   
     3:30:00: Balanced after 1 trials
   
     3:45:00: Balanced after 5 trials
   
     4:00:00: Balanced after 3 trials
   
     4:15:00: Balanced after 1 trials
   
   
  Hydraulic Status:
  -----------------------------------------------------------------------
     0:00:00: Balanced after 6 trials
     0:00:00: Reservoir S1 is emptying
     0:00:00: Reservoir 2 is emptying
   
     0:15:00: Balanced after 1 trials
   
     0:30:00: Balanced after 1 trials
   
     0:45:00: Balanced after 5 trials
     0:45:00: Reservoir 2 is closed
     0:45:00: PRV prv_2 changed from active to closed
   
     1:00:00: Balanced after 3 trials
   
     1:15:00: Balanced after 1 trials
   
     1:30:00: Balanced after 1 trials
   
     1:45:00: Balanced after 8 trials
     1:45:00: Reservoir 2 is emptying
     1:45:00: PRV prv_2 changed from closed to active
   
     2:00:00: Balanced after 3 trials
   
     2:15:00: Balanced after 1 trials
   
     2:30:00: Balanced after 1 trials
   
     2:45:00: Balanced after 4 trials
   
     3:00:00: Balanced after 3 trials
   
     3:15:00: Balanced after 1 trials
   
     3:30:00: Balanced after 1 trials
   
     3:45:00: Balanced after 4 trials
   
     4:00:00: Balanced after 3 trials
   
     4:15:00: Balanced after 1 trials
   
   
  Hydraulic Status:
  -----------------------------------------------------------------------
     0:00:00: Balanced after 6 trials
     0:00:00: Reservoir S1 is emptying
     0:00:00: Reservoir 2 is emptying
   
     0:15:00: Balanced after 1 trials
   
     0:30:00: Balanced after 1 trials
   
     0:45:00: Balanced after 5 trials
     0:45:00: PRV prv_2 changed from active to closed
   
     1:00:00: Balanced after 3 trials
   
     1:15:00: Balanced after 1 trials
   
     1:30:00: Balanced after 1 trials
   
     1:45:00: Balanced after 10 trials
     1:45:00: PRV prv_2 changed from closed to active
   
     2:00:00: Balanced after 3 trials
   
     2:15:00: Balanced after 1 trials
   
     2:30:00: Balanced after 1 trials
   
     2:45:00: Balanced after 5 trials
   
     3:00:00: Balanced after 3 trials
   
     3:15:00: Balanced after 1 trials
   
     3:30:00: Balanced after 1 trials
   
     3:45:00: Balanced after 2 trials
   
     4:00:00: Balanced after 3 trials
   
     4:15:00: Balanced after 1 trials
   
   
  Hydraulic Status:
  -----------------------------------------------------------------------
     0:00:00: Balanced after 6 trials
     0:00:00: Reservoir S1 is emptying
     0:00:00: Reservoir 2 is emptying
   
     0:15:00: Balanced after 1 trials
   
     0:30:00: Balanced after 1 trials
   
     0:45:00: Balanced after 5 trials
     0:45:00: Reservoir 2 is closed
     0:45:00: PRV prv_2 changed from active to closed
   
     1:00:00: Balanced after 3 trials
   
     1:15:00: Balanced after 1 trials
   
     1:30:00: Balanced after 1 trials
   
     1:45:00: Balanced after 10 trials
     1:45:00: Reservoir 2 is emptying
     1:45:00: PRV prv_2 changed from closed 