  Page 1                                    Wed Oct 04 15:50:58 2017

  ******************************************************************
  *                           E P A N E T                          *
  *                   Hydraulic and Water Quality                  *
  *                   Analysis for Pipe Networks                   *
  *                         Version 2.00.12                        *
  ******************************************************************
  
  Analysis begun Wed Oct 04 15:50:58 2017

   
  Hydraulic Status:
  -----------------------------------------------------------------------
     0:00:00: Balanced after 8 trials
     0:00:00: Reservoir S1 is emptying
   
     1:00:00: Balanced after 3 trials
   
     2:00:00: Balanced after 3 trials
   
     3:00:00: Balanced after 3 trials
   
     4:00:00: Balanced after 3 trials
   
     5:00:00: Balanced after 3 trials
   
   
  Hydraulic Status:
  -----------------------------------------------------------------------
     0:00:00: Balanced after 5 trials
     0:00:00: Reservoir S1 is emptying
   
     1:00:00: Balanced after 3 trials
   
     2:00:00: Balanced after 3 trials
   
     3:00:00: Balanced after 3 trials
   
     4:00:00: Balanced after 3 trials
   
     5:00:00: Balanced after 3 trials
   
   
  Hydraulic Status:
  -----------------------------------------------------------------------
     0:00:00: Balanced after 5 trials
     0:00:00: Reservoir S1 is emptying
   
     1:00:00: Balanced after 3 trials
   
     2:00:00: Balanced after 3 trials
   
     3:00:00: Balanced after 3 trials
   
     4:00:00: Balanced after 3 trials
   
     5:00:00: Balanced after 3 trials
   
   
  Hydraulic Status:
  -----------------------------------------------------------------------
     0:00:00: Balanced after 5 trials
     0:00:00: Reservoir S1 is emptying
   
     1:00:00: Balanced after 3 trials
   
     2:00:00: Balanced after 3 trials
   
     3:00:00: Balanced after 3 trials
   
     4:00:00: Balanced after 3 trials
   
     5:00:00: Balanced after 3 trials
   
   
  Hydraulic Status:
  -----------------------------------------------------------------------
     0:00:00: Balanced after 5 trials
     0:00:00: Reservoir S1 is emptying
   
     1:00:00: Balanced after 3 trials
   
     2:00:00: Balanced after 3 trials
   
     3:00:00: Balanced after 3 trials
   
     4:00:00: Balanced after 3 trials
   
     5:00:00: Balanced after 3 trials
   
   
  Hydraulic Status:
  -----------------------------------------------------------------------
     0:00:00: Balanced after 5 trials
     0:00:00: Reservoir S1 is emptying
   
     1:00:00: Balanced after 3 trials
   
     2:00:00: Balanced after 3 trials
   
     3:00:00: Balanced after 3 trials
   
     4:00:00: Balanced after 3 trials
   
     5:00:00: Balanced after 3 trials
   
   
  Hydraulic Status:
  -----------------------------------------------------------------------
     0:00:00: Balanced after 5 trials
     0:00:00: Reservoir S1 is emptying
   
     1:00:00: Balanced after 3 trials
   
     2:00:00: Balanced after 3 trials
   
     3:00:00: Balanced after 3 trials
   
     4:00:00: Balanced after 3 trials
   
     5:00:00: Balanced after 3 trials
   
   
  Hydraulic Status:
  -----------------------------------------------------------------------
     0:00:00: Balanced after 5 trials
     0:00:00: Reservoir S1 is emptying
   
     1:00:00: Balanced after 3 trials
   
     2:00:00: Balanced after 3 trials
   
     3:00:00: Balanced after 3 trials
   
     4:00:00: Balanced after 3 trials
   
     5:00:00: Balanced after 3 trials
   
   
  Hydraulic Status:
  -----------------------------------------------------------------------
     0:00:00: Balanced after 5 trials
     0:00:00: Reservoir S1 is emptying
   
     1:00:00: Balanced after 2 trials
   
     2:00:00: Balanced after 3 trials
   
     3:00:00: Balanced after 3 trials
   
     4:00:00: Balanced after 3 trials
   
     5:00:00: Balanced after 3 trials
   
   
  Hydraulic Status:
  -----------------------------------------------------------------------
     0:00:00: Balanced after 5 trials
     0:00:00: Reservoir S1 is emptying
   
     1:00:00: Balanced after 3 trials
   
     2:00:00: Balanced after 3 trials
   
     3:00:00: Balanced after 3 trials
   
     4:00:00: Balanced after 3 trials
   
     5:00:00: Balanced after 3 trials
   
   
  Hydraulic Status:
  -----------------------------------------------------------------------
     0:00:00: Balanced after 5 trials
     0:00:00: Reservoir S1 is emptying
   
     1:00:00: Balanced after 3 trials
   
     2:00:00: Balanced after 3 trials
   
     3:00:00: Balanced after 3 trials
   
     4:00:00: Balanced after 3 trials
   
     5:00:00: Balanced after 3 trials
   
   
  Hydraulic Status:
  -----------------------------------------------------------------------
     0:00:00: Balanced after 5 trials
     0:00:00: Reservoir S1 is emptying
   
     1:00:00: Balanced after 3 trials
   
     2:00:00: Balanced after 3 trials
   
     3:00:00: Balanced after 3 trials
   
     4:00:00: Balanced after 3 trials
   
     5:00:00: Balanced after 3 trials
   
   
  Hydraulic Status:
  -----------------------------------------------------------------------
     0:00:00: Balanced after 5 trials
     0:00:00: Reservoir S1 is emptying
   
     1:00:00: Balanced after 3 trials
   
     2:00:00: Balanced after 3 trials
   
     3:00:00: Balanced after 3 trials
   
     4:00:00: Balanced after 3 trials
   
     5:00:00: Balanced after 3 trials
   
   
  Hydraulic Status:
  -----------------------------------------------------------------------
     0:00:00: Balanced after 5 trials
     0:00:00: Reservoir S1 is emptying
   
     1:00:00: Balanced after 3 trials
   
     2:00:00: Balanced after 3 trials
   
     3:00:00: Balanced after 3 trials
   
     4:00:00: Balanced after 3 trials
   
     5:00:00: Balanced after 3 trials
   
   
  Hydraulic Status:
  -----------------------------------------------------------------------
     0:00:00: Balanced after 5 trials
     0:00:00: Reservoir S1 is emptying
   
     1:00:00: Balanced after 2 trials
   
     2:00:00: Balanced after 3 trials
   
     3:00:00: Balanced after 3 trials
   
     4:00:00: Balanced after 3 trials
   
     5:00:00: Balanced after 3 trials
   
   
  Hydraulic Status:
  -----------------------------------------------------------------------
     0:00:00: Balanced after 7 trials
     0:00:00: Reservoir S1 is emptying
   
     1:00:00: Balanced after 4 trials
   
     2:00:00: Balanced after 3 trials
   
     3:00:00: Balanced after 3 trials
   
     4:00:00: Balanced after 3 trials
   
     5:00:00: Balanced after 3 trials
   
   
  Hydraulic Status:
  -----------------------------------------------------------------------
     0:00:00: Balanced after 3 trials
     0:00:00: Reservoir S1 is emptying
   
     1:00:00: Balanced after 4 trials
   
     2:00:00: Balanced after 3 trials
   
     3:00:00: Balanced after 3 trials
   
     4:00:00: Balanced after 4 trials
   
     5:00:00: Balanced after 3 trials
   
   
  Hydraulic Status:
  -----------------------------------------------------------------------
     0:00:00: Balanced after 3 trials
     0:00:00: Reservoir S1 is emptying
   
     1:00:00: Balanced after 4 trials
   
     2:00:00: Balanced after 3 trials
   
     3:00:00: Balanced after 3 trials
   
     4:00:00: Balanced after 4 trials
   
     5:00:00: Balanced after 3 trials
   
   
  Hydraulic Status:
  -----------------------------------------------------------------------
     0:00:00: Balanced after 3 trials
     0:00:00: Reservoir S1 is emptying
   
     1:00:00: Balanced after 4 trials
   
     2:00:00: Balanced after 3 trials
   
     3:00:00: Balanced after 3 trials
   
     4:00:00: Balanced after 3 trials
   
     5:00:00: Balanced after 3 trials
   
   
  Hydraulic Status:
  -----------------------------------------------------------------------
     0:00:00: Balanced after 3 trials
     0:00:00: Reservoir S1 is emptying
   
     1:00:00: Balanced after 4 trials
   
     2:00:00: Balanced after 3 trials
   
     3:00:00: Balanced after 3 trials
   
     4:00:00: Balanced after 4 trials
   
     5:00:00: Balanced after 3 trials
   
   
  Hydraulic Status:
  -----------------------------------------------------------------------
     0:00:00: Balanced after 3 trials
     0:00:00: Reservoir S1 is emptying
   
     1:00:00: Balanced after 4 trials
   
     2:00:00: Balanced after 3 trials
   
     3:00:00: Balanced after 3 trials
   
     4:00:00: Balanced after 4 trials
   
     5:00:00: Balanced after 3 trials
   
   
  Hydraulic Status:
  -----------------------------------------------------------------------
     0:00:00: Balanced after 7 trials
     0:00:00: Reservoir S1 is emptying
   
     1:00:00: Balanced after 3 trials
   
     2:00:00: Balanced after 3 trials
   
     3:00:00: Balanced after 3 trials
   
     4:00:00: Balanced after 3 trials
   
     5:00:00: Balanced after 3 trials
   
   
  Hydraulic Status:
  -----------------------------------------------------------------------
     0:00:00: Balanced after 3 trials
     0:00:00: Reservoir S1 is emptying
   
     1:00:00: Balanced after 3 trials
   
     2:00:00: Balanced after 3 trials
   
     3:00:00: Balanced after 3 trials
   
     4:00:00: Balanced after 3 trials
   
     5:00:00: Balanced after 3 trials
   
   
  Hydraulic Status:
  -----------------------------------------------------------------------
     0:00:00: Balanced after 7 trials
     0:00:00: Reservoir S1 is emptying
   
     1:00:00: Balanced after 3 trials
   
     2:00:00: Balanced after 3 trials
   
     3:00:00: Balanced after 3 trials
   
     4:00:00: Balanced after 3 trials
   
     5:00:00: Balanced after 3 trials
   
   
  Hydraulic Status:
  -----------------------------------------------------------------------
     0:00:00: Balanced after 3 trials
     0:00:00: Reservoir S1 is emptying
   
     1:00:00: Balanced after 3 trials
   
     2:00:00: Balanced after 3 trials
   
     3:00:00: Balanced after 3 trials
   
     4:00:00: Balanced after 3 trials
   
     5:00:00: Balanced after 3 trials
   
   
  Hydraulic Status:
  -----------------------------------------------------------------------
     0:00:00: Balanced after 3 trials
     0:00:00: Reservoir S1 is emptying
   
     1:00:00: Balanced after 3 trials
   
     2:00:00: Balanced after 3 trials
   
     3:00:00: Balanced after 3 trials
   
     4:00:00: Balanced after 3 trials
   
     5:00:00: Balanced after 3 trials
   
   
  Hydraulic Status:
  -----------------------------------------------------------------------
     0:00:00: Balanced after 3 trials
     0:00:00: Reservoir S1 is emptying
   
     1:00:00: Balanced after 3 trials
   
     2:00:00: Balanced after 3 trials
   
     3:00:00: Balanced after 3 trials
   
     4:00:00: Balanced after 3 trials
   
     5:00:00: Balanced after 3 trials
   
   
  Hydraulic Status:
  -----------------------------------------------------------------------
     0:00:00: Balanced after 3 trials
     0:00:00: Reservoir S1 is emptying
   
     1:00:00: Balanced after 3 trials
   
     2:00:00: Balanced after 3 trials
   
     3:00:00: Balanced after 3 trials
   
     4:00:00: Balanced after 3 trials
   
     5:00:00: Balanced after 3 trials
   
   
  Hydraulic Status:
  -----------------------------------------------------------------------
     0:00:00: Balanced after 3 trials
     0:00:00: Reservoir S1 is emptying
   
     1:00:00: Balanced after 3 trials
   
     2:00:00: Balanced after 3 trials
   
     3:00:00: Balanced after 3 trials
   
     4:00:00: Balanced after 3 trials
   
     5:00:00: Balanced after 3 trials
   
   
  Hydraulic Status:
  -----------------------------------------------------------------------
     0:00:00: Balanced after 3 trials
     0:00:00: Reservoir S1 is emptying
   
     1:00:00: Balanced after 3 trials
   
     2:00:00: Balanced after 3 trials
   
     3:00:00: Balanced after 3 trials
   
     4:00:00: Balanced after 3 trials
   
     5:00:00: Balanced after 3 trials
   
   
  Hydraulic Status:
  -----------------------------------------------------------------------
     0:00:00: Balanced after 3 trials
     0:00:00: Reservoir S1 is emptying
   
     1:00:00: Balanced after 3 trials
   
     2:00:00: Balanced after 3 trials
   
     3:00:00: Balanced after 3 trials
   
     4:00:00: Balanced after 3 trials
   
     5:00:00: Balanced after 3 trials
   
   
  Hydraulic Status:
  -----------------------------------------------------------------------
     0:00:00: Balanced after 3 trials
     0:00:00: Reservoir S1 is emptying
   
     1:00:00: Balanced after 3 trials
   
     2:00:00: Balanced after 3 trials
   
     3:00:00: Balanced after 3 trials
   
     4:00:00: Balanced after 3 trials
   
     5:00:00: Balanced after 3 trials
   
   
  Hydraulic Status:
  -----------------------------------------------------------------------
     0:00:00: Balanced after 3 trials
     0:00:00: Reservoir S1 is emptying
   
     1:00:00: Balanced after 3 trials
   
     2:00:00: Balanced after 3 trials
   
     3:00:00: Balanced after 3 trials
   
     4:00:00: Balanced after 3 trials
   
     5:00:00: Balanced after 3 trials
   
   
  Hydraulic Status:
  -----------------------------------------------------------------------
     0:00:00: Balanced after 3 trials
     0:00:00: Reservoir S1 is emptying
   
     1:00:00: Balanced after 3 trials
   
     2:00:00: Balanced after 3 trials
   
     3:00:00: Balanced after 3 trials
   
     4:00:00: Balanced after 3 trials
   
     5:00:00: Balanced after 3 trials
   
   
  Hydraulic Status:
  -----------------------------------------------------------------------
     0:00:00: Balanced after 3 trials
     0:00:00: Reservoir S1 is emptying
   
     1:00:00: Balanced after 3 trials
   
     2:00:00: Balanced after 3 trials
   
     3:00:00: Balanced after 3 trials
   
     4:00:00: Balanced after 3 trials
   
     5:00:00: Balanced after 3 trials
   
   
  Hydraulic Status:
  -----------------------------------------------------------------------
     0:00:00: Balanced after 3 trials
     0:00:00: Reservoir S1 is emptying
   
     1:00:00: Balanced after 3 trials
   
     2:00:00: Balanced after 3 trials
   
     3:00:00: Balanced after 3 trials
   
     4:00:00: Balanced after 3 trials
   
     5:00:00: Balanced after 3 trials
   
   
  Hydraulic Status:
  -----------------------------------------------------------------------
     0:00:00: Balanced after 3 trials
     0:00:00: Reservoir S1 is emptying
   
     1:00:00: Balanced after 3 trials
   
     2:00:00: Balanced after 3 trials
   
     3:00:00: Balanced after 3 trials
   
     4:00:00: Balanced after 3 trials
   
     5:00:00: Balanced after 3 trials
   
   
  Hydraulic Status:
  -----------------------------------------------------------------------
     0:00:00: Balanced after 3 trials
     0:00:00: Reservoir S1 is emptying
   
     1:00:00: Balanced after 3 trials
   
     2:00:00: Balanced after 3 trials
   
     3:00:00: Balanced after 3 trials
   
     4:00:00: Balanced after 3 trials
   
     5:00:00: Balanced after 3 trials
   
   
  Hydraulic Status:
  -----------------------------------------------------------------------
     0:00:00: Balanced after 3 trials
     0:00:00: Reservoir S1 is emptying
   
     1:00:00: Balanced after 3 trials
   
     2:00:00: Balanced after 3 trials
   
     3:00:00: Balanced after 3 trials
   
     4:00:00: Balanced after 3 trials
   
     5:00:00: Balanced after 3 trials
   
   
  Hydraulic Status:
  -----------------------------------------------------------------------
     0:00:00: Balanced after 3 trials
     0:00:00: Reservoir S1 is emptying
   
     1:00:00: Balanced after 3 trials
   
     2:00:00: Balanced after 3 trials
   
     3:00:00: Balanced after 3 trials
   
     4:00:00: Balanced after 3 trials
   
     5:00:00: Balanced after 3 trials
   
   
  Hydraulic Status:
  -----------------------------------------------------------------------
     0:00:00: Balanced after 3 trials
     0:00:00: Reservoir S1 is emptying
   
     1:00:00: Balanced after 3 trials
   
     2:00:00: Balanced after 3 trials
   
     3:00:00: Balanced after 3 trials
   
     4:00:00: Balanced after 3 trials
   
     5:00:00: Balanced after 3 trials
   
   
  Hydraulic Status:
  -----------------------------------------------------------------------
     0:00:00: Balanced after 3 trials
     0:00:00: Reservoir S1 is emptying
   
     1:00:00: Balanced after 3 trials
   
     2:00:00: Balanced after 3 trials
   
     3:00:00: Balanced after 3 trials
   
     4:00:00: Balanced after 3 trials
   
     5:00:00: Balanced after 3 trials
   
   
  Hydraulic Status:
  -----------------------------------------------------------------------
     0:00:00: Balanced after 3 trials
     0:00:00: Reservoir S1 is emptying
   
     1:00:00: Balanced after 3 trials
   
     2:00:00: Balanced after 3 trials
   
     3:00:00: Balanced after 3 trials
   
     4:00:00: Balanced after 3 trials
   
     5:00:00: Balanced after 3 trials
   
   
  Hydraulic Status:
  -----------------------------------------------------------------------
     0:00:00: Balanced after 3 trials
     0:00:00: Reservoir S1 is emptying
   
     1:00:00: Balanced after 3 trials
   
     2:00:00: Balanced after 3 trials
   
     3:00:00: Balanced after 3 trials
   
     4:00:00: Balanced after 3 trials
   
     5:00:00: Balanced after 3 trials
   
   
  Hydraulic Status:
  -----------------------------------------------------------------------
     0:00:00: Balanced after 3 trials
     0:00:00: Reservoir S1 is emptying
   
     1:00:00: Balanced after 3 trials
   
     2:00:00: Balanced after 3 trials
   
     3:00:00: Balanced after 3 trials
   
     4:00:00: Balanced after 3 trials
   
     5:00:00: Balanced after 3 trials
   
   
  Hydraulic Status:
  -----------------------------------------------------------------------
     0:00:00: Balanced after 3 trials
     0:00:00: Reservoir S1 is emptying
   
     1:00:00: Balanced after 3 trials
   
     2:00:00: Balanced after 3 trials
   
     3:00:00: Balanced after 3 trials
   
     4:00:00: Balanced after 3 trials
   
     5:00:00: Balanced after 3 trials
   
   
  Hydraulic Status:
  -----------------------------------------------------------------------
     0:00:00: Balanced after 3 trials
     0:00:00: Reservoir S1 is emptying
   
     1:00:00: Balanced after 3 trials
   
     2:00:00: Balanced after 3 trials
   
     3:00:00: Balanced after 3 trials
   
     4:00:00: Balanced after 3 trials
   
     5:00:00: Balanced after 3 trials
   
   
  Hydraulic Status:
  -----------------------------------------------------------------------
     0:00:00: Balanced after 3 trials
     0:00:00: Reservoir S1 is emptying
   
     1:00:00: Balanced after 3 trials
   
     2:00:00: Balanced after 3 trials
   
     3:00:00: Balanced after 3 trials
   
     4:00:00: Balanced after 3 trials
   
     5:00:00: Balanced after 3 trials
   
   
  Hydraulic Status:
  -----------------------------------------------------------------------
     0:00:00: Balanced after 3 trials
     0:00:00: Reservoir S1 is emptying
   
     1:00:00: Balanced after 3 trials
   
     2:00:00: Balanced after 3 trials
   
     3:00:00: Balanced after 3 trials
   
     4:00:00: Balanced after 3 trials
   
     5:00:00: Balanced after 3 trials
   
   
  Hydraulic Status:
  -----------------------------------------------------------------------
     0:00:00: Balanced after 3 trials
     0:00:00: Reservoir S1 is emptying
   
     1:00:00: Balanced after 3 trials
   
     2:00:00: Balanced after 3 trials
   
     3:00:00: Balanced after 3 trials
   
     4:00:00: Balanced after 3 trials
   
     5:00:00: Balanced after 3 trials
   
   
  Hydraulic Status:
  -----------------------------------------------------------------------
     0:00:00: Balanced after 3 trials
     0:00:00: Reservoir S1 is emptying
   
     1:00:00: Balanced after 3 trials
   
     2:00:00: Balanced after 3 trials
   
     3:00:00: Balanced after 3 trials
   
     4:00:00: Balanced after 3 trials
   
     5:00:00: Balanced after 3 trials
   
   
  Hydraulic Status:
  -----------------------------------------------------------------------
     0:00:00: Balanced after 3 trials
     0:00:00: Reservoir S1 is emptying
   
     1:00:00: Balanced after 3 trials
   
     2:00:00: Balanced after 3 trials
   
     3:00:00: Balanced after 3 trials
   
     4:00:00: Balanced after 3 trials
   
     5:00:00: Balanced after 3 trials
   
   
  Hydraulic Status:
  -----------------------------------------------------------------------
     0:00:00: Balanced after 3 trials
     0:00:00: Reservoir S1 is emptying
   
     1:00:00: Balanced after 3 trials
   
     2:00:00: Balanced after 3 trials
   
     3:00:00: Balanced after 3 trials
   
     4:00:00: Balanced after 3 trials
   
     5:00:00: Balanced after 3 trials
   
   
  Hydraulic Status:
  -----------------------------------------------------------------------
     0:00:00: Balanced after 3 trials
     0:00:00: Reservoir S1 is emptying
   
     1:00:00: Balanced after 3 trials
   
     2:00:00: Balanced after 3 trials
   
     3:00:00: Balanced after 3 trials
   
     4:00:00: Balanced after 3 trials
   
     5:00:00: Balanced after 3 trials
   
   
  Hydraulic Status:
  -----------------------------------------------------------------------
     0:00:00: Balanced after 3 trials
     0:00:00: Reservoir S1 is emptying
   
     1:00:00: Balanced after 3 trials
   
     2:00:00: Balanced after 3 trials
   
     3:00:00: Balanced after 3 trials
   
     4:00:00: Balanced after 3 trials
   
     5:00:00: Balanced after 3 trials
   
   
  Hydraulic Status:
  -----------------------------------------------------------------------
     0:00:00: Balanced after 3 trials
     0:00:00: Reservoir S1 is emptying
   
     1:00:00: Balanced after 3 trials
   
     2:00:00: Balanced after 3 trials
   
     3:00:00: Balanced after 3 trials
   
     4:00:00: Balanced after 3 trials
   
     5:00:00: Balanced after 3 trials
   
   
  Hydraulic Status:
  -----------------------------------------------------------------------
     0:00:00: Balanced after 3 trials
     0:00:00: Reservoir S1 is emptying
   
     1:00:00: Balanced after 3 trials
   
     2:00:00: Balanced after 3 trials
   
     3:00:00: Balanced after 3 trials
   
     4:00:00: Balanced after 3 trials
   
     5:00:00: Balanced after 3 trials
   
   
  Hydraulic Status:
  -----------------------------------------------------------------------
     0:00:00: Balanced after 3 trials
     0:00:00: Reservoir S1 is emptying
   
     1:00:00: Balanced after 3 trials
   
     2:00:00: Balanced after 3 trials
   
     3:00:00: Balanced after 3 trials
   
     4:00:00: Balanced after 3 trials
   
     5:00:00: Balanced after 3 trials
   
   
  Hydraulic Status:
  -----------------------------------------------------------------------
     0:00:00: Balanced after 3 trials
     0:00:00: Reservoir S1 is emptying
   
     1:00:00: Balanced after 3 trials
   
     2:00:00: Balanced after 3 trials
   
     3:00:00: Balanced after 3 trials
   
     4:00:00: Balanced after 3 trials
   
     5:00:00: Balanced after 3 trials
   
   
  Hydraulic Status:
  -----------------------------------------------------------------------
     0:00:00: Balanced after 3 trials
     0:00:00: Reservoir S1 is emptying
   
     1:00:00: Balanced after 3 trials
   
     2:00:00: Balanced after 3 trials
   
     3:00:00: Balanced after 3 trials
   
     4:00:00: Balanced after 3 trials
   
     5:00:00: Balanced after 3 trials
   
   
  Hydraulic Status:
  -----------------------------------------------------------------------
     0:00:00: Balanced after 3 trials
     0:00:00: Reservoir S1 is emptying
   
     1:00:00: Balanced after 3 trials
   
     2:00:00: Balanced after 3 trials
   
     3:00:00: Balanced after 3 trials
   
     4:00:00: Balanced after 3 trials
   
     5:00:00: Balanced after 3 trials
   
   
  Hydraulic Status:
  -----------------------------------------------------------------------
     0:00:00: Balanced after 3 trials
     0:00:00: Reservoir S1 is emptying
   
     1:00:00: Balanced after 3 trials
   
     2:00:00: Balanced after 3 trials
   
     3:00:00: Balanced after 3 trials
   
     4:00:00: Balanced after 3 trials
   
     5:00:00: Balanced after 3 trials
   
   
  Hydraulic Status:
  -----------------------------------------------------------------------
     0:00:00: Balanced after 3 trials
     0:00:00: Reservoir S1 is emptying
   
     1:00:00: Balanced after 3 trials
   
     2:00:00: Balanced after 3 trials
   
     3:00:00: Balanced after 3 trials
   
     4:00:00: Balanced after 3 trials
   
     5:00:00: Balanced after 3 trials
   
   
  Hydraulic Status:
  -----------------------------------------------------------------------
     0:00:00: Balanced after 3 trials
     0:00:00: Reservoir S1 is emptying
   
     1:00:00: Balanced after 3 trials
   
     2:00:00: Balanced after 3 trials
   
     3:00:00: Balanced after 3 trials
   
     4:00:00: Balanced after 3 trials
   
     5:00:00: Balanced after 3 trials
   
   
  Hydraulic Status:
  -----------------------------------------------------------------------
     0:00:00: Balanced after 3 trials
     0:00:00: Reservoir S1 is emptying
   
     1:00:00: Balanced after 3 trials
   
     2:00:00: Balanced after 3 trials
   
     3:00:00: Balanced after 3 trials
   
     4:00:00: Balanced after 3 trials
   
     5:00:00: Balanced after 3 trials
   
   
  Hydraulic Status:
  -----------------------------------------------------------------------
     0:00:00: Balanced after 3 trials
     0:00:00: Reservoir S1 is emptying
   
     1:00:00: Balanced after 3 trials
   
     2:00:00: Balanced after 3 trials
   
     3:00:00: Balanced after 3 trials
   
     4:00:00: Balanced after 3 trials
   
     5:00:00: Balanced after 3 trials
   
   
  Hydraulic Status:
  -----------------------------------------------------------------------
     0:00:00: Balanced after 3 trials
     0:00:00: Reservoir S1 is emptying
   
     1:00:00: Balanced after 3 trials
   
     2:00:00: Balanced after 3 trials
   
     3:00:00: Balanced after 3 trials
   
     4:00:00: Balanced after 3 trials
   
     5:00:00: Balanced after 3 trials
   
   
  Hydraulic Status:
  -----------------------------------------------------------------------
     0:00:00: Balanced after 3 trials
     0:00:00: Reservoir S1 is emptying
   
     1:00:00: Balanced after 3 trials
   
     2:00:00: Balanced after 3 trials
   
     3:00:00: Balanced after 3 trials
   
     4:00:00: Balanced after 3 trials
   
     5:00:00: Balanced after 3 trials
   
   
  Hydraulic Status:
  -----------------------------------------------------------------------
     0:00:00: Balanced after 3 trials
     0:00:00: Reservoir S1 is emptying
   
     1:00:00: Balanced after 3 trials
   
     2:00:00: Balanced after 3 trials
   
     3:00:00: Balanced after 3 trials
   
     4:00:00: Balanced after 3 trials
   
     5:00:00: Balanced after 3 trials
   
   
  Hydraulic Status:
  -----------------------------------------------------------------------
     0:00:00: Balanced after 3 trials
     0:00:00: Reservoir S1 is emptying
   
     1:00:00: Balanced after 3 trials
   
     2:00:00: Balanced after 3 trials
   
     3:00:00: Balanced after 3 trials
   
     4:00:00: Balanced after 3 trials
   
     5:00:00: Balanced after 3 trials
   
   
  Hydraulic Status:
  -----------------------------------------------------------------------
     0:00:00: Balanced after 3 trials
     0:00:00: Reservoir S1 is emptying
   
     1:00:00: Balanced after 3 trials
   
     2:00:00: Balanced after 3 trials
   
     3:00:00: Balanced after 3 trials
   
     4:00:00: Balanced after 3 trials
   
     5:00:00: Balanced after 3 trials
   
   
  Hydraulic Status:
  -----------------------------------------------------------------------
     0:00:00: Balanced after 3 trials
     0:00:00: Reservoir S1 is emptying
   
     1:00:00: Balanced after 3 trials
   
     2:00:00: Balanced after 3 trials
   
     3:00:00: Balanced after 3 trials
   
     4:00:00: Balanced after 3 trials
   
     5:00:00: Balanced after 3 trials
   
   
  Hydraulic Status:
  -----------------------------------------------------------------------
     0:00:00: Balanced after 3 trials
     0:00:00: Reservoir S1 is emptying
   
     1:00:00: Balanced after 3 trials
   
     2:00:00: Balanced after 3 trials
   
     3:00:00: Balanced after 3 trials
   
     4:00:00: Balanced after 3 trials
   
     5:00:00: Balanced after 3 trials
   
   
  Hydraulic Status:
  -----------------------------------------------------------------------
     0:00:00: Balanced after 3 trials
     0:00:00: Reservoir S1 is emptying
   
     1:00:00: Balanced after 3 trials
   
     2:00:00: Balanced after 3 trials
   
     3:00:00: Balanced after 3 trials
   
     4:00:00: Balanced after 3 trials
   
     5:00:00: Balanced after 3 trials
   
   
  Hydraulic Status:
  -----------------------------------------------------------------------
     0:00:00: Balanced after 3 trials
     0:00:00: Reservoir S1 is emptying
   
     1:00:00: Balanced after 3 trials
   
     2:00:00: Balanced after 3 trials
   
     3:00:00: Balanced after 3 trials
   
     4:00:00: Balanced after 3 trials
   
     5:00:00: Balanced after 3 trials
   
   
  Hydraulic Status:
  -----------------------------------------------------------------------
     0:00:00: Balanced after 3 trials
     0:00:00: Reservoir S1 is emptying
   
     1:00:00: Balanced after 3 trials
   
     2:00:00: Balanced after 3 trials
   
     3:00:00: Balanced after 3 trials
   
     4:00:00: Balanced after 3 trials
   
     5:00:00: Balanced after 3 trials
   
   
  Hydraulic Status:
  -----------------------------------------------------------------------
     0:00:00: Balanced after 3 trials
     0:00:00: Reservoir S1 is emptying
   
     1:00:00: Balanced after 3 trials
   
     2:00:00: Balanced after 3 trials
   
     3:00:00: Balanced after 3 trials
   
     4:00:00: Balanced after 3 trials
   
     5:00:00: Balanced after 3 trials
   
   
  Hydraulic Status:
  -----------------------------------------------------------------------
     0:00:00: Balanced after 3 trials
     0:00:00: Reservoir S1 is emptying
   
     1:00:00: Balanced after 3 trials
   
     2:00:00: Balanced after 3 trials
   
     3:00:00: Balanced after 3 trials
   
     4:00:00: Balanced after 3 trials
   
     5:00:00: Balanced after 3 trials
   
   
  Hydraulic Status:
  -----------------------------------------------------------------------
     0:00:00: Balanced after 3 trials
     0:00:00: Reservoir S1 is emptying
   
     1:00:00: Balanced after 3 trials
   
     2:00:00: Balanced after 3 trials
   
     3:00:00: Balanced after 3 trials
   
     4:00:00: Balanced after 3 trials
   
     5:00:00: Balanced after 3 trials
   
   
  Hydraulic Status:
  -----------------------------------------------------------------------
     0:00:00: Balanced after 3 trials
     0:00:00: Reservoir S1 is emptying
   
     1:00:00: Balanced after 3 trials
   
     2:00:00: Balanced after 3 trials
   
     3:00:00: Balanced after 3 trials
   
     4:00:00: Balanced after 3 trials
   
     5:00:00: Balanced after 3 trials
   
   
  Hydraulic Status:
  -----------------------------------------------------------------------
     0:00:00: Balanced after 3 trials
     0:00:00: Reservoir S1 is emptying
   
     1:00:00: Balanced after 3 trials
   
     2:00:00: Balanced after 3 trials
   
     3:00:00: Balanced after 3 trials
   
     4:00:00: Balanced after 3 trials
   
     5:00:00: Balanced after 3 trials
   
   
  Hydraulic Status:
  -----------------------------------------------------------------------
     0:00:00: Balanced after 3 trials
     0:00:00: Reservoir S1 is emptying
   
     1:00:00: Balanced after 3 trials
   
     2:00:00: Balanced after 3 trials
   
     3:00:00: Balanced after 3 trials
   
     4:00:00: Balanced after 3 trials
   
     5:00:00: Balanced after 3 trials
   
   
  Hydraulic Status:
  -----------------------------------------------------------------------
     0:00:00: Balanced after 3 trials
     0:00:00: Reservoir S1 is emptying
   
     1:00:00: Balanced after 3 trials
   
     2:00:00: Balanced after 3 trials
   
     3:00:00: Balanced after 3 trials
   
     4:00:00: Balanced after 3 trials
   
     5:00:00: Balanced after 3 trials
   
   
  Hydraulic Status:
  -----------------------------------------------------------------------
     0:00:00: Balanced after 3 trials
     0:00:00: Reservoir S1 is emptying
   
     1:00:00: Balanced after 3 trials
   
     2:00:00: Balanced after 3 trials
   
     3:00:00: Balanced after 3 trials
   
     4:00:00: Balanced after 3 trials
   
     5:00:00: Balanced after 3 trials
   
   
  Hydraulic Status:
  -----------------------------------------------------------------------
     0:00:00: Balanced after 3 trials
     0:00:00: Reservoir S1 is emptying
   
     1:00:00: Balanced after 3 trials
   
     2:00:00: Balanced after 3 trials
   
     3:00:00: Balanced after 3 trials
   
     4:00:00: Balanced after 3 trials
   
     5:00:00: Balanced after 3 trials
   
   
  Hydraulic Status:
  -----------------------------------------------------------------------
     0:00:00: Balanced after 3 trials
     0:00:00: Reservoir S1 is emptying
   
     1:00:00: Balanced after 3 trials
   
     2:00:00: Balanced after 3 trials
   
     3:00:00: Balanced after 3 trials
   
     4:00:00: Balanced after 3 trials
   
     5:00:00: Balanced after 3 trials
   
   
  Hydraulic Status:
  -----------------------------------------------------------------------
     0:00:00: Balanced after 3 trials
     0:00:00: Reservoir S1 is emptying
   
     1:00:00: Balanced after 3 trials
   
     2:00:00: Balanced after 3 trials
   
     3:00:00: Balanced after 3 trials
   
     4:00:00: Balanced after 3 trials
   
     5:00:00: Balanced after 3 trials
   
   
  Hydraulic Status:
  -----------------------------------------------------------------------
     0:00:00: Balanced after 3 trials
     0:00:00: Reservoir S1 is emptying
   
     1:00:00: Balanced after 3 trials
   
     2:00:00: Balanced after 3 trials
   
     3:00:00: Balanced after 3 trials
   
     4:00:00: Balanced after 3 trials
   
     5:00:00: Balanced after 3 trials
   
   
  Hydraulic Status:
  -----------------------------------------------------------------------
     0:00:00: Balanced after 3 trials
     0:00:00: Reservoir S1 is emptying
   
     1:00:00: Balanced after 3 trials
   
     2:00:00: Balanced after 3 trials
   
     3:00:00: Balanced after 3 trials
   
     4:00:00: Balanced after 3 trials
   
     5:00:00: Balanced after 3 trials
   
   
  Hydraulic Status:
  -----------------------------------------------------------------------
     0:00:00: Balanced after 3 trials
     0:00:00: Reservoir S1 is emptying
   
     1:00:00: Balanced after 3 trials
   
     2:00:00: Balanced after 3 trials
   
     3:00:00: Balanced after 3 trials
   
     4:00:00: Balanced after 3 trials
   
     5:00:00: Balanced after 3 trials
   
   
  Hydraulic Status:
  -----------------------------------------------------------------------
     0:00:00: Balanced after 3 trials
     0:00:00: Reservoir S1 is emptying
   
     1:00:00: Balanced after 3 trials
   
     2:00:00: Balanced after 3 trials
   
     3:00:00: Balanced after 3 trials
   
     4:00:00: Balanced after 3 trials
   
     5:00:00: Balanced after 3 trials
   
   
  Hydraulic Status:
  -----------------------------------------------------------------------
     0:00:00: Balanced after 3 trials
     0:00:00: Reservoir S1 is emptying
   
     1:00:00: Balanced after 3 trials
   
     2:00:00: Balanced after 3 trials
   
     3:00:00: Balanced after 3 trials
   
     4:00:00: Balanced after 3 trials
   
     5:00:00: Balanced after 3 trials
   
   
  Hydraulic Status:
  -----------------------------------------------------------------------
     0:00:00: Balanced after 3 trials
     0:00:00: Reservoir S1 is emptying
   
     1:00:00: Balanced after 3 trials
   
     2:00:00: Balanced after 3 trials
   
     3:00:00: Balanced after 3 trials
   
     4:00:00: Balanced after 3 trials
   
     5:00:00: Balanced after 3 trials
   
   
  Hydraulic Status:
  -----------------------------------------------------------------------
     0:00:00: Balanced after 3 trials
     0:00:00: Reservoir S1 is emptying
   
     1:00:00: Balanced after 3 trials
   
     2:00:00: Balanced after 3 trials
   
     3:00:00: Balanced after 3 trials
   
     4:00:00: Balanced after 3 trials
   
     5:00:00: Balanced after 3 trials
   
   
  Hydraulic Status:
  -----------------------------------------------------------------------
     0:00:00: Balanced after 3 trials
     0:00:00: Reservoir S1 is emptying
   
     1:00:00: Balanced after 3 trials
   
     2:00:00: Balanced after 3 trials
   
     3:00:00: Balanced after 3 trials
   
     4:00:00: Balanced after 3 trials
   
     5:00:00: Balanced after 3 trials
   
   
  Hydraulic Status:
  -----------------------------------------------------------------------
     0:00:00: Balanced after 3 trials
     0:00:00: Reservoir S1 is emptying
   
     1:00:00: Balanced after 3 trials
   
     2:00:00: Balanced after 3 trials
   
     3:00:00: Balanced after 3 trials
   
     4:00:00: Balanced after 3 trials
   
     5:00:00: Balanced after 3 trials
   
   
  Hydraulic Status:
  -----------------------------------------------------------------------
     0:00:00: Balanced after 3 trials
     0:00:00: Reservoir S1 is emptying
   
     1:00:00: Balanced after 3 trials
   
     2:00:00: Balanced after 3 trials
   
     3:00:00: Balanced after 3 trials
   
     4:00:00: Balanced after 3 trials
   
     5:00:00: Balanced after 3 trials
   
   
  Hydraulic Status:
  -----------------------------------------------------------------------
     0:00:00: Balanced after 3 trials
     0:00:00: Reservoir S1 is emptying
   
     1:00:00: Balanced after 3 trials
   
     2:00:00: Balanced after 3 trials
   
     3:00:00: Balanced after 3 trials
   
     4:00:00: Balanced after 3 trials
   
     5:00:00: Balanced after 3 trials
   
   
  Hydraulic Status:
  -----------------------------------------------------------------------
     0:00:00: Balanced after 3 trials
     0:00:00: Reservoir S1 is emptying
   
     1:00:00: Balanced after 3 trials
   
     2:00:00: Balanced after 3 trials
   
     3:00:00: Balanced after 3 trials
   
     4:00:00: Balanced after 3 trials
   
     5:00:00: Balanced after 3 trials
   
   
  Hydraulic Status:
  -----------------------------------------------------------------------
     0:00:00: Balanced after 3 trials
     0:00:00: Reservoir S1 is emptying
   
     1:00:00: Balanced after 3 trials
   
     2:00:00: Balanced after 3 trials
   
     3:00:00: Balanced after 3 trials
   
     4:00:00: Balanced after 3 trials
   
     5:00:00: Balanced after 3 trials
   
   
  Hydraulic Status:
  -----------------------------------------------------------------------
     0:00:00: Balanced after 3 trials
     0:00:00: Reservoir S1 is emptying
   
     1:00:00: Balanced after 3 trials
   
     2:00:00: Balanced after 3 trials
   
     3:00:00: Balanced after 3 trials
   
     4:00:00: Balanced after 3 trials
   
     5:00:00: Balanced after 3 trials
   
   
  Hydraulic Status:
  -----------------------------------------------------------------------
     0:00:00: Balanced after 3 trials
     0:00:00: Reservoir S1 is emptying
   
     1:00:00: Balanced after 3 trials
   
     2:00:00: Balanced after 3 trials
   
     3:00:00: Balanced after 3 trials
   
     4:00:00: Balanced after 3 trials
   
     5:00:00: Balanced after 3 trials
   
   
  Hydraulic Status:
  -----------------------------------------------------------------------
     0:00:00: Balanced after 3 trials
     0:00:00: Reservoir S1 is emptying
   
     1:00:00: Balanced after 3 trials
   
     2:00:00: Balanced after 3 trials
   
     3:00:00: Balanced after 3 trials
   
     4:00:00: Balanced after 3 trials
   
     5:00:00: Balanced after 3 trials
   
   
  Hydraulic Status:
  -----------------------------------------------------------------------
     0:00:00: Balanced after 3 trials
     0:00:00: Reservoir S1 is emptying
   
     1:00:00: Balanced after 3 trials
   
     2:00:00: Balanced after 3 trials
   
     3:00:00: Balanced after 3 trials
   
     4:00:00: Balanced after 3 trials
   
     5:00:00: Balanced after 3 trials
   
   
  Hydraulic Status:
  -----------------------------------------------------------------------
     0:00:00: Balanced after 3 trials
     0:00:00: Reservoir S1 is emptying
   
     1:00:00: Balanced after 3 trials
   
     2:00:00: Balanced after 3 trials
   
     3:00:00: Balanced after 3 trials
   
     4:00:00: Balanced after 3 trials
   
     5:00:00: Balanced after 3 trials
   
   
  Hydraulic Status:
  -----------------------------------------------------------------------
     0:00:00: Balanced after 3 trials
     0:00:00: Reservoir S1 is emptying
   
     1:00:00: Balanced after 3 trials
   
     2:00:00: Balanced after 3 trials
   
     3:00:00: Balanced after 3 trials
   
     4:00:00: Balanced after 3 trials
   
     5:00:00: Balanced after 3 trials
   
   
  Hydraulic Status:
  -----------------------------------------------------------------------
     0:00:00: Balanced after 3 trials
     0:00:00: Reservoir S1 is emptying
   
     1:00:00: Balanced after 3 trials
   
     2:00:00: Balanced after 3 trials
   
     3:00:00: Balanced after 3 trials
   
     4:00:00: Balanced after 3 trials
   
     5:00:00: Balanced after 3 trials
   
   
  Hydraulic Status:
  -----------------------------------------------------------------------
     0:00:00: Balanced after 3 trials
     0:00:00: Reservoir S1 is emptying
   
     1:00:00: Balanced after 3 trials
   
     2:00:00: Balanced after 3 trials
   
     3:00:00: Balanced after 3 trials
   
     4:00:00: Balanced after 3 trials
   
     5:00:00: Balanced after 3 trials
   
   
  Hydraulic Status:
  -----------------------------------------------------------------------
     0:00:00: Balanced after 3 trials
     0:00:00: Reservoir S1 is emptying
   
     1:00:00: Balanced after 3 trials
   
     2:00:00: Balanced after 3 trials
   
     3:00:00: Balanced after 3 trials
   
     4:00:00: Balanced after 3 trials
   
     5:00:00: Balanced after 3 trials
   
   
  Hydraulic Status:
  -----------------------------------------------------------------------
     0:00:00: Balanced after 3 trials
     0:00:00: Reservoir S1 is emptying
   
     1:00:00: Balanced after 3 trials
   
     2:00:00: Balanced after 3 trials
   
     3:00:00: Balanced after 3 trials
   
     4:00:00: Balanced after 3 trials
   
     5:00:00: Balanced after 3 trials
   
   
  Hydraulic Status:
  -----------------------------------------------------------------------
     0:00:00: Balanced after 3 trials
     0:00:00: Reservoir S1 is emptying
   
     1:00:00: Balanced after 3 trials
   
     2:00:00: Balanced after 3 trials
   
     3:00:00: Balanced after 3 trials
   
     4:00:00: Balanced after 3 trials
   
     5:00:00: Balanced after 3 trials
   
   
  Hydraulic Status:
  -----------------------------------------------------------------------
     0:00:00: Balanced after 3 trials
     0:00:00: Reservoir S1 is emptying
   
     1:00:00: Balanced after 3 trials
   
     2:00:00: Balanced after 3 trials
   
     3:00:00: Balanced after 3 trials
   
     4:00:00: Balanced after 3 trials
   
     5:00:00: Balanced after 3 trials
   
   
  Hydraulic Status:
  -----------------------------------------------------------------------
     0:00:00: Balanced after 3 trials
     0:00:00: Reservoir S1 is emptying
   
     1:00:00: Balanced after 3 trials
   
     2:00:00: Balanced after 3 trials
   
     3:00:00: Balanced after 3 trials
   
     4:00:00: Balanced after 3 trials
   
     5:00:00: Balanced after 3 trials
   
   
  Hydraulic Status:
  -----------------------------------------------------------------------
     0:00:00: Balanced after 3 trials
     0:00:00: Reservoir S1 is emptying
   
     1:00:00: Balanced after 3 trials
   
     2:00:00: Balanced after 3 trials
   
     3:00:00: Balanced after 3 trials
   
     4:00:00: Balanced after 3 trials
   
     5:00:00: Balanced after 3 trials
   
   
  Hydraulic Status:
  -----------------------------------------------------------------------
     0:00:00: Balanced after 3 trials
     0:00:00: Reservoir S1 is emptying
   
     1:00:00: Balanced after 3 trials
   
     2:00:00: Balanced after 3 trials
   
     3:00:00: Balanced after 3 trials
   
     4:00:00: Balanced after 3 trials
   
     5:00:00: Balanced after 3 trials
   
   
  Hydraulic Status:
  -----------------------------------------------------------------------
     0:00:00: Balanced after 3 trials
     0:00:00: Reservoir S1 is emptying
   
     1:00:00: Balanced after 3 trials
   
     2:00:00: Balanced after 3 trials
   
     3:00:00: Balanced after 3 trials
   
     4:00:00: Balanced after 3 trials
   
     5:00:00: Balanced after 3 trials
   
   
  Hydraulic Status:
  -----------------------------------------------------------------------
     0:00:00: Balanced after 3 trials
     0:00:00: Reservoir S1 is emptying
   
     1:00:00: Balanced after 3 trials
   
     2:00:00: Balanced after 3 trials
   
     3:00:00: Balanced after 3 trials
   
     4:00:00: Balanced after 3 trials
   
     5:00:00: Balanced after 3 trials
   
   
  Hydraulic Status:
  -----------------------------------------------------------------------
     0:00:00: Balanced after 3 trials
     0:00:00: Reservoir S1 is emptying
   
     1:00:00: Balanced after 3 trials
   
     2:00:00: Balanced after 3 trials
   
     3:00:00: Balanced after 3 trials
   
     4:00:00: Balanced after 3 trials
   
     5:00:00: Balanced after 3 trials
   
   
  Hydraulic Status:
  -----------------------------------------------------------------------
     0:00:00: Balanced after 3 trials
     0:00:00: Reservoir S1 is emptying
   
     1:00:00: Balanced after 3 trials
   
     2:00:00: Balanced after 3 trials
   
     3:00:00: Balanced after 3 trials
   
     4:00:00: Balanced after 3 trials
   
     5:00:00: Balanced after 3 trials
   
   
  Hydraulic Status:
  -----------------------------------------------------------------------
     0:00:00: Balanced after 3 trials
     0:00:00: Reservoir S1 is emptying
   
     1:00:00: Balanced after 3 trials
   
     2:00:00: Balanced after 3 trials
   
     3:00:00: Balanced after 3 trials
   
     4:00:00: Balanced after 3 trials
   
     5:00:00: Balanced after 3 trials
   
   
  Hydraulic Status:
  -----------------------------------------------------------------------
     0:00:00: Balanced after 3 trials
     0:00:00: Reservoir S1 is emptying
   
     1:00:00: Balanced after 3 trials
   
     2:00:00: Balanced after 3 trials
   
     3:00:00: Balanced after 3 trials
   
     4:00:00: Balanced after 3 trials
   
     5:00:00: Balanced after 3 trials
   
   
  Hydraulic Status:
  -----------------------------------------------------------------------
     0:00:00: Balanced after 3 trials
     0:00:00: Reservoir S1 is emptying
   
     1:00:00: Balanced after 3 trials
   
     2:00:00: Balanced after 3 trials
   
     3:00:00: Balanced after 3 trials
   
     4:00:00: Balanced after 3 trials
   
     5:00:00: Balanced after 3 trials
   
   
  Hydraulic Status:
  -----------------------------------------------------------------------
     0:00:00: Balanced after 3 trials
     0:00:00: Reservoir S1 is emptying
   
     1:00:00: Balanced after 3 trials
   
     2:00:00: Balanced after 3 trials
   
     3:00:00: Balanced after 3 trials
   
     4:00:00: Balanced after 3 trials
   
     5:00:00: Balanced after 3 trials
   
   
  Hydraulic Status:
  -----------------------------------------------------------------------
     0:00:00: Balanced after 3 trials
     0:00:00: Reservoir S1 is emptying
   
     1:00:00: Balanced after 3 trials
   
     2:00:00: Balanced after 3 trials
   
     3:00:00: Balanced after 3 trials
   
     4:00:00: Balanced after 3 trials
   
     5:00:00: Balanced after 3 trials
   
   
  Hydraulic Status:
  -----------------------------------------------------------------------
     0:00:00: Balanced after 3 trials
     0:00:00: Reservoir S1 is emptying
   
     1:00:00: Balanced after 3 trials
   
     2:00:00: Balanced after 3 trials
   
     3:00:00: Balanced after 3 trials
   
     4:00:00: Balanced after 3 trials
   
     5:00:00: Balanced after 3 trials
   
   
  Hydraulic Status:
  -----------------------------------------------------------------------
     0:00:00: Balanced after 3 trials
     0:00:00: Reservoir S1 is emptying
   
     1:00:00: Balanced after 3 trials
   
     2:00:00: Balanced after 3 trials
   
     3:00:00: Balanced after 3 trials
   
     4:00:00: Balanced after 3 trials
   
     5:00:00: Balanced after 3 trials
   
   
  Hydraulic Status:
  -----------------------------------------------------------------------
     0:00:00: Balanced after 3 trials
     0:00:00: Reservoir S1 is emptying
   
     1:00:00: Balanced after 3 trials
   
     2:00:00: Balanced after 3 trials
   
     3:00:00: Balanced after 3 trials
   
     4:00:00: Balanced after 3 trials
   
     5:00:00: Balanced after 3 trials
   
   
  Hydraulic Status:
  -----------------------------------------------------------------------
     0:00:00: Balanced after 3 trials
     0:00:00: Reservoir S1 is emptying
   
     1:00:00: Balanced after 3 trials
   
     2:00:00: Balanced after 3 trials
   
     3:00:00: Balanced after 3 trials
   
     4:00:00: Balanced after 3 trials
   
     5:00:00: Balanced after 3 trials
   
   
  Hydraulic Status:
  -----------------------------------------------------------------------
     0:00:00: Balanced after 3 trials
     0:00:00: Reservoir S1 is emptying
   
     1:00:00: Balanced after 3 trials
   
     2:00:00: Balanced after 3 trials
   
     3:00:00: Balanced after 3 trials
   
     4:00:00: Balanced after 3 trials
   
     5:00:00: Balanced after 3 trials
   
   
  Hydraulic Status:
  -----------------------------------------------------------------------
     0:00:00: Balanced after 3 trials
     0:00:00: Reservoir S1 is emptying
   
     1:00:00: Balanced after 3 trials
   
     2:00:00: Balanced after 3 trials
   
     3:00:00: Balanced after 3 trials
   
     4:00:00: Balanced after 3 trials
   
     5:00:00: Balanced after 3 trials
   
   
  Hydraulic Status:
  -----------------------------------------------------------------------
     0:00:00: Balanced after 3 trials
     0:00:00: Reservoir S1 is emptying
   
     1:00:00: Balanced after 3 trials
   
     2:00:00: Balanced after 3 trials
   
     3:00:00: Balanced after 3 trials
   
     4:00:00: Balanced after 3 trials
   
     5:00:00: Balanced after 3 trials
   
   
  Hydraulic Status:
  -----------------------------------------------------------------------
     0:00:00: Balanced after 3 trials
     0:00:00: Reservoir S1 is emptying
   
     1:00:00: Balanced after 3 trials
   
     2:00:00: Balanced after 3 trials
   
     3:00:00: Balanced after 3 trials
   
     4:00:00: Balanced after 3 trials
   
     5:00:00: Balanced after 3 trials
   
   
  Hydraulic Status:
  -----------------------------------------------------------------------
     0:00:00: Balanced after 3 trials
     0:00:00: Reservoir S1 is emptying
   
     1:00:00: Balanced after 3 trials
   
     2:00:00: Balanced after 3 trials
   
     3:00:00: Balanced after 3 trials
   
     4:00:00: Balanced after 3 trials
   
     5:00:00: Balanced after 3 trials
   
   
  Hydraulic Status:
  -----------------------------------------------------------------------
     0:00:00: Balanced after 3 trials
     0:00:00: Reservoir S1 is emptying
   
     1:00:00: Balanced after 3 trials
   
     2:00:00: Balanced after 3 trials
   
     3:00:00: Balanced after 3 trials
   
     4:00:00: Balanced after 3 trials
   
     5:00:00: Balanced after 3 trials
   
   
  Hydraulic Status:
  -----------------------------------------------------------------------
     0:00:00: Balanced after 3 trials
     0:00:00: Reservoir S1 is emptying
   
     1:00:00: Balanced after 3 trials
   
     2:00:00: Balanced after 3 trials
   
     3:00:00: Balanced after 3 trials
   
     4:00:00: Balanced after 3 trials
   
     5:00:00: Balanced after 3 trials
   
   
  Hydraulic Status:
  -----------------------------------------------------------------------
     0:00:00: Balanced after 3 trials
     0:00:00: Reservoir S1 is emptying
   
     1:00:00: Balanced after 3 trials
   
     2:00:00: Balanced after 3 trials
   
     3:00:00: Balanced after 3 trials
   
     4:00:00: Balanced after 3 trials
   
     5:00:00: Balanced after 3 trials
   
   
  Hydraulic Status:
  -----------------------------------------------------------------------
     0:00:00: Balanced after 3 trials
     0:00:00: Reservoir S1 is emptying
   
     1:00:00: Balanced after 3 trials
   
     2:00:00: Balanced after 3 trials
   
     3:00:00: Balanced after 3 trials
   
     4:00:00: Balanced after 3 trials
   
     5:00:00: Balanced after 3 trials
   
   
  Hydraulic Status:
  -----------------------------------------------------------------------
     0:00:00: Balanced after 3 trials
     0:00:00: Reservoir S1 is emptying
   
     1:00:00: Balanced after 3 trials
   
     2:00:00: Balanced after 3 trials
   
     3:00:00: Balanced after 3 trials
   
     4:00:00: Balanced after 3 trials
   
     5:00:00: Balanced after 3 trials
   
   
  Hydraulic Status:
  -----------------------------------------------------------------------
     0:00:00: Balanced after 3 trials
     0:00:00: Reservoir S1 is emptying
   
     1:00:00: Balanced after 3 trials
   
     2:00:00: Balanced after 3 trials
   
     3:00:00: Balanced after 3 trials
   
     4:00:00: Balanced after 3 trials
   
     5:00:00: Balanced after 3 trials
   
   
  Hydraulic Status:
  -----------------------------------------------------------------------
     0:00:00: Balanced after 3 trials
     0:00:00: Reservoir S1 is emptying
   
     1:00:00: Balanced after 3 trials
   
     2:00:00: Balanced after 3 trials
   
     3:00:00: Balanced after 3 trials
   
     4:00:00: Balanced after 3 trials
   
     5:00:00: Balanced after 3 trials
   
   
  Hydraulic Status:
  -----------------------------------------------------------------------
     0:00:00: Balanced after 3 trials
     0:00:00: Reservoir S1 is emptying
   
     1:00:00: Balanced after 3 trials
   
     2:00:00: Balanced after 3 trials
   
     3:00:00: Balanced after 3 trials
   
     4:00:00: Balanced after 3 trials
   
     5:00:00: Balanced after 3 trials
   
   
  Hydraulic Status:
  -----------------------------------------------------------------------
     0:00:00: Balanced after 3 trials
     0:00:00: Reservoir S1 is emptying
   
     1:00:00: Balanced after 3 trials
   
     2:00:00: Balanced after 3 trials
   
     3:00:00: Balanced after 3 trials
   
     4:00:00: Balanced after 3 trials
   
     5:00:00: Balanced after 3 trials
   
   
  Hydraulic Status:
  -----------------------------------------------------------------------
     0:00:00: Balanced after 3 trials
     0:00:00: Reservoir S1 is emptying
   
     1:00:00: Balanced after 3 trials
   
     2:00:00: Balanced after 3 trials
   
     3:00:00: Balanced after 3 trials
   
     4:00:00: Balanced after 3 trials
   
     5:00:00: Balanced after 3 trials
   
   
  Hydraulic Status:
  -----------------------------------------------------------------------
     0:00:00: Balanced after 3 trials
     0:00:00: Reservoir S1 is emptying
   
     1:00:00: Balanced after 3 trials
   
     2:00:00: Balanced after 3 trials
   
     3:00:00: Balanced after 3 trials
   
     4:00:00: Balanced after 3 trials
   
     5:00:00: Balanced after 3 trials
   
   
  Hydraulic Status:
  -----------------------------------------------------------------------
     0:00:00: Balanced after 3 trials
     0:00:00: Reservoir S1 is emptying
   
     1:00:00: Balanced after 3 trials
   
     2:00:00: Balanced after 3 trials
   
     3:00:00: Balanced after 3 trials
   
     4:00:00: Balanced after 3 trials
   
     5:00:00: Balanced after 3 trials
   
   
  Hydraulic Status:
  -----------------------------------------------------------------------
     0:00:00: Balanced after 3 trials
     0:00:00: Reservoir S1 is emptying
   
     1:00:00: Balanced after 3 trials
   
     2:00:00: Balanced after 3 trials
   
     3:00:00: Balanced after 3 trials
   
     4:00:00: Balanced after 3 trials
   
     5:00:00: Balanced after 3 trials
   
   
  Hydraulic Status:
  -----------------------------------------------------------------------
     0:00:00: Balanced after 3 trials
     0:00:00: Reservoir S1 is emptying
   
     1:00:00: Balanced after 3 trials
   
     2:00:00: Balanced after 3 trials
   
     3:00:00: Balanced after 3 trials
   
     4:00:00: Balanced after 3 trials
   
     5:00:00: Balanced after 3 trials
   
   
  Hydraulic Status:
  -----------------------------------------------------------------------
     0:00:00: Balanced after 3 trials
     0:00:00: Reservoir S1 is emptying
   
     1:00:00: Balanced after 3 trials
   
     2:00:00: Balanced after 3 trials
   
     3:00:00: Balanced after 3 trials
   
     4:00:00: Balanced after 3 trials
   
     5:00:00: Balanced after 3 trials
   
   
  Hydraulic Status:
  -----------------------------------------------------------------------
     0:00:00: Balanced after 3 trials
     0:00:00: Reservoir S1 is emptying
   
     1:00:00: Balanced after 3 trials
   
     2:00:00: Balanced after 3 trials
   
     3:00:00: Balanced after 3 trials
   
     4:00:00: Balanced after 3 trials
   
     5:00:00: Balanced after 3 trials
   
   
  Hydraulic Status:
  -----------------------------------------------------------------------
     0:00:00: Balanced after 3 trials
     0:00:00: Reservoir S1 is emptying
   
     1:00:00: Balanced after 3 trials
   
     2:00:00: Balanced after 3 trials
   
     3:00:00: Balanced after 3 trials
   
     4:00:00: Balanced after 3 trials
   
     5:00:00: Balanced after 3 trials
   
   
  Hydraulic Status:
  -----------------------------------------------------------------------
     0:00:00: Balanced after 3 trials
     0:00:00: Reservoir S1 is emptying
   
     1:00:00: Balanced after 3 trials
   
     2:00:00: Balanced after 3 trials
   
     3:00:00: Balanced after 3 trials
   
     4:00:00: Balanced after 3 trials
   
     5:00:00: Balanced after 3 trials
   
   
  Hydraulic Status:
  -----------------------------------------------------------------------
     0:00:00: Balanced after 3 trials
     0:00:00: Reservoir S1 is emptying
   
     1:00:00: Balanced after 3 trials
   
     2:00:00: Balanced after 3 trials
   
     3:00:00: Balanced after 3 trials
   
     4:00:00: Balanced after 3 trials
   
     5:00:00: Balanced after 3 trials
   
   
  Hydraulic Status:
  -----------------------------------------------------------------------
     0:00:00: Balanced after 3 trials
     0:00:00: Reservoir S1 is emptying
   
     1:00:00: Balanced after 3 trials
   
     2:00:00: Balanced after 3 trials
   
     3:00:00: Balanced after 3 trials
   
     4:00:00: Balanced after 3 trials
   
     5:00:00: Balanced after 3 trials
   
   
  Hydraulic Status:
  -----------------------------------------------------------------------
     0:00:00: Balanced after 3 trials
     0:00:00: Reservoir S1 is emptying
   
     1:00:00: Balanced after 3 trials
   
     2:00:00: Balanced after 3 trials
   
     3:00:00: Balanced after 3 trials
   
     4:00:00: Balanced after 3 trials
   
     5:00:00: Balanced after 3 trials
   
   
  Hydraulic Status:
  -----------------------------------------------------------------------
     0:00:00: Balanced after 3 trials
     0:00:00: Reservoir S1 is emptying
   
     1:00:00: Balanced after 3 trials
   
     2:00:00: Balanced after 3 trials
   
     3:00:00: Balanced after 3 trials
   
     4:00:00: Balanced after 3 trials
   
     5:00:00: Balanced after 3 trials
   
   
  Hydraulic Status:
  -----------------------------------------------------------------------
     0:00:00: Balanced after 3 trials
     0:00:00: Reservoir S1 is emptying
   
     1:00:00: Balanced after 3 trials
   
     2:00:00: Balanced after 3 trials
   
     3:00:00: Balanced after 3 trials
   
     4:00:00: Balanced after 3 trials
   
     5:00:00: Balanced after 3 trials
   
   
  Hydraulic Status:
  -----------------------------------------------------------------------
     0:00:00: Balanced after 3 trials
     0:00:00: Reservoir S1 is emptying
   
     1:00:00: Balanced after 3 trials
   
     2:00:00: Balanced after 3 trials
   
     3:00:00: Balanced after 3 trials
   
     4:00:00: Balanced after 3 trials
   
     5:00:00: Balanced after 3 trials
   
   
  Hydraulic Status:
  -----------------------------------------------------------------------
     0:00:00: Balanced after 3 trials
     0:00:00: Reservoir S1 is emptying
   
     1:00:00: Balanced after 3 trials
   
     2:00:00: Balanced after 3 trials
   
     3:00:00: Balanced after 3 trials
   
     4:00:00: Balanced after 3 trials
   
     5:00:00: Balanced after 3 trials
   
   
  Hydraulic Status:
  -----------------------------------------------------------------------
     0:00:00: Balanced after 3 trials
     0:00:00: Reservoir S1 is emptying
   
     1:00:00: Balanced after 3 trials
   
     2:00:00: Balanced after 3 trials
   
     3:00:00: Balanced after 3 trials
   
     4:00:00: Balanced after 3 trials
   
     5:00:00: Balanced after 3 trials
   
   
  Hydraulic Status:
  -----------------------------------------------------------------------
     0:00:00: Balanced after 3 trials
     0:00:00: Reservoir S1 is emptying
   
     1:00:00: Balanced after 3 trials
   
     2:00:00: Balanced after 3 trials
   
     3:00:00: Balanced after 3 trials
   
     4:00:00: Balanced after 3 trials
   
     5:00:00: Balanced after 3 trials
   
   
  Hydraulic Status:
  -----------------------------------------------------------------------
     0:00:00: Balanced after 3 trials
     0:00:00: Reservoir S1 is emptying
   
     1:00:00: Balanced after 3 trials
   
     2:00:00: Balanced after 3 trials
   
     3:00:00: Balanced after 3 trials
   
     4:00:00: Balanced after 3 trials
   
     5:00:00: Balanced after 3 trials
   
   
  Hydraulic Status:
  -----------------------------------------------------------------------
     0:00:00: Balanced after 3 trials
     0:00:00: Reservoir S1 is emptying
   
     1:00:00: Balanced after 3 trials
   
     2:00:00: Balanced after 3 trials
   
     3:00:00: Balanced after 3 trials
   
     4:00:00: Balanced after 3 trials
   
     5:00:00: Balanced after 3 trials
   
   
  Hydraulic Status:
  -----------------------------------------------------------------------
     0:00:00: Balanced after 3 trials
     0:00:00: Reservoir S1 is emptying
   
     1:00:00: Balanced after 3 trials
   
     2:00:00: Balanced after 3 trials
   
     3:00:00: Balanced after 3 trials
   
     4:00:00: Balanced after 3 trials
   
     5:00:00: Balanced after 3 trials
   
   
  Hydraulic Status:
  -----------------------------------------------------------------------
     0:00:00: Balanced after 3 trials
     0:00:00: Reservoir S1 is emptying
   
     1:00:00: Balanced after 3 trials
   
     2:00:00: Balanced after 3 trials
   
     3:00:00: Balanced after 3 trials
   
     4:00:00: Balanced after 3 trials
   
     5:00:00: Balanced after 3 trials
   
   
  Hydraulic Status:
  -----------------------------------------------------------------------
     0:00:00: Balanced after 3 trials
     0:00:00: Reservoir S1 is emptying
   
     1:00:00: Balanced after 3 trials
   
     2:00:00: Balanced after 3 trials
   
     3:00:00: Balanced after 3 trials
   
     4:00:00: Balanced after 3 trials
   
     5:00:00: Balanced after 3 trials
   
   
  Hydraulic Status:
  -----------------------------------------------------------------------
     0:00:00: Balanced after 3 trials
     0:00:00: Reservoir S1 is emptying
   
     1:00:00: Balanced after 3 trials
   
     2:00:00: Balanced after 3 trials
   
     3:00:00: Balanced after 3 trials
   
     4:00:00: Balanced after 3 trials
   
     5:00:00: Balanced after 3 trials
   
   
  Hydraulic Status:
  -----------------------------------------------------------------------
     0:00:00: Balanced after 3 trials
     0:00:00: Reservoir S1 is emptying
   
     1:00:00: Balanced after 3 trials
   
     2:00:00: Balanced after 3 trials
   
     3:00:00: Balanced after 3 trials
   
     4:00:00: Balanced after 3 trials
   
     5:00:00: Balanced after 3 trials
   
   
  Hydraulic Status:
  -----------------------------------------------------------------------
     0:00:00: Balanced after 3 trials
     0:00:00: Reservoir S1 is emptying
   
     1:00:00: Balanced after 3 trials
   
     2:00:00: Balanced after 3 trials
   
     3:00:00: Balanced after 3 trials
   
     4:00:00: Balanced after 3 trials
   
     5:00:00: Balanced after 3 trials
   
   
  Hydraulic Status:
  -----------------------------------------------------------------------
     0:00:00: Balanced after 3 trials
     0:00:00: Reservoir S1 is emptying
   
     1:00:00: Balanced after 3 trials
   
     2:00:00: Balanced after 3 trials
   
     3:00:00: Balanced after 3 trials
   
     4:00:00: Balanced after 3 trials
   
     5:00:00: Balanced after 3 trials
   
   
  Hydraulic Status:
  -----------------------------------------------------------------------
     0:00:00: Balanced after 3 trials
     0:00:00: Reservoir S1 is emptying
   
     1:00:00: Balanced after 3 trials
   
     2:00:00: Balanced after 3 trials
   
     3:00:00: Balanced after 3 trials
   
     4:00:00: Balanced after 3 trials
   
     5:00:00: Balanced after 3 trials
   
   
  Hydraulic Status:
  -----------------------------------------------------------------------
     0:00:00: Balanced after 3 trials
     0:00:00: Reservoir S1 is emptying
   
     1:00:00: Balanced after 3 trials
   
     2:00:00: Balanced after 3 trials
   
     3:00:00: Balanced after 3 trials
   
     4:00:00: Balanced after 3 trials
   
     5:00:00: Balanced after 3 trials
   
   
  Hydraulic Status:
  -----------------------------------------------------------------------
     0:00:00: Balanced after 3 trials
     0:00:00: Reservoir S1 is emptying
   
     1:00:00: Balanced after 3 trials
   
     2:00:00: Balanced after 3 trials
   
     3:00:00: Balanced after 3 trials
   
     4:00:00: Balanced after 3 trials
   
     5:00:00: Balanced after 3 trials
   
   
  Hydraulic Status:
  -----------------------------------------------------------------------
     0:00:00: Balanced after 3 trials
     0:00:00: Reservoir S1 is emptying
   
     1:00:00: Balanced after 3 trials
   
     2:00:00: Balanced after 3 trials
   
     3:00:00: Balanced after 3 trials
   
     4:00:00: Balanced after 3 trials
   
     5:00:00: Balanced after 3 trials
   
   
  Hydraulic Status:
  -----------------------------------------------------------------------
     0:00:00: Balanced after 3 trials
     0:00:00: Reservoir S1 is emptying
   
     1:00:00: Balanced after 3 trials
   
     2:00:00: Balanced after 3 trials
   
     3:00:00: Balanced after 3 trials
   
     4:00:00: Balanced after 3 trials
   
     5:00:00: Balanced after 3 trials
   
   
  Hydraulic Status:
  -----------------------------------------------------------------------
     0:00:00: Balanced after 3 trials
     0:00:00: Reservoir S1 is emptying
   
     1:00:00: Balanced after 3 trials
   
     2:00:00: Balanced after 3 trials
   
     3:00:00: Balanced after 3 trials
   
     4:00:00: Balanced after 3 trials
   
     5:00:00: Balanced after 3 trials
   
   
  Hydraulic Status:
  -----------------------------------------------------------------------
     0:00:00: Balanced after 3 trials
     0:00:00: Reservoir S1 is emptying
   
     1:00:00: Balanced after 3 trials
   
     2:00:00: Balanced after 3 trials
   
     3:00:00: Balanced after 3 trials
   
     4:00:00: Balanced after 3 trials
   
     5:00:00: Balanced after 3 trials
   
   
  Hydraulic Status:
  -----------------------------------------------------------------------
     0:00:00: Balanced after 3 trials
     0:00:00: Reservoir S1 is emptying
   
     1:00:00: Balanced after 3 trials
   
     2:00:00: Balanced after 3 trials
   
     3:00:00: Balanced after 3 trials
   
     4:00:00: Balanced after 3 trials
   
     5:00:00: Balanced after 3 trials
   
   
  Hydraulic Status:
  -----------------------------------------------------------------------
     0:00:00: Balanced after 3 trials
     0:00:00: Reservoir S1 is emptying
   
     1:00:00: Balanced after 3 trials
   
     2:00:00: Balanced after 3 trials
   
     3:00:00: Balanced after 3 trials
   
     4:00:00: Balanced after 3 trials
   
     5:00:00: Balanced after 3 trials
   
   
  Hydraulic Status:
  -----------------------------------------------------------------------
     0:00:00: Balanced after 3 trials
     0:00:00: Reservoir S1 is emptying
   
     1:00:00: Balanced after 3 trials
   
     2:00:00: Balanced after 3 trials
   
     3:00:00: Balanced after 3 trials
   
     4:00:00: Balanced after 3 trials
   
     5:00:00: Balanced after 3 trials
   
   
  Hydraulic Status:
  -----------------------------------------------------------------------
     0:00:00: Balanced after 3 trials
     0:00:00: Reservoir S1 is emptying
   
     1:00:00: Balanced after 3 trials
   
     2:00:00: Balanced after 3 trials
   
     3:00:00: Balanced after 3 trials
   
     4:00:00: Balanced after 3 trials
   
     5:00:00: Balanced after 3 trials
   
   
  Hydraulic Status:
  -----------------------------------------------------------------------
     0:00:00: Balanced after 3 trials
     0:00:00: Reservoir S1 is emptying
   
     1:00:00: Balanced after 3 trials
   
     2:00:00: Balanced after 3 trials
   
     3:00:00: Balanced after 3 trials
   
     4:00:00: Balanced after 3 trials
   
     5:00:00: Balanced after 3 trials
   
   
  Hydraulic Status:
  -----------------------------------------------------------------------
     0:00:00: Balanced after 3 trials
     0:00:00: Reservoir S1 is emptying
   
     1:00:00: Balanced after 3 trials
   
     2:00:00: Balanced after 3 trials
   
     3:00:00: Balanced after 3 trials
   
     4:00:00: Balanced after 3 trials
   
     5:00:00: Balanced after 3 trials
   
   
  Hydraulic Status:
  -----------------------------------------------------------------------
     0:00:00: Balanced after 3 trials
     0:00:00: Reservoir S1 is emptying
   
     1:00:00: Balanced after 3 trials
   
     2:00:00: Balanced after 3 trials
   
     3:00:00: Balanced after 3 trials
   
     4:00:00: Balanced after 3 trials
   
     5:00:00: Balanced after 3 trials
   
   
  Hydraulic Status:
  -----------------------------------------------------------------------
     0:00:00: Balanced after 3 trials
     0:00:00: Reservoir S1 is emptying
   
     1:00:00: Balanced after 3 trials
   
     2:00:00: Balanced after 3 trials
   
     3:00:00: Balanced after 3 trials
   
     4:00:00: Balanced after 3 trials
   
     5:00:00: Balanced after 3 trials
   
   
  Hydraulic Status:
  -----------------------------------------------------------------------
     0:00:00: Balanced after 3 trials
     0:00:00: Reservoir S1 is emptying
   
     1:00:00: Balanced after 3 trials
   
     2:00:00: Balanced after 3 trials
   
     3:00:00: Balanced after 3 trials
   
     4:00:00: Balanced after 3 trials
   
     5:00:00: Balanced after 3 trials
   
   
  Hydraulic Status:
  -----------------------------------------------------------------------
     0:00:00: Balanced after 3 trials
     0:00:00: Reservoir S1 is emptying
   
     1:00:00: Balanced after 3 trials
   
     2:00:00: Balanced after 3 trials
   
     3:00:00: Balanced after 3 trials
   
     4:00:00: Balanced after 3 trials
   
     5:00:00: Balanced after 3 trials
   
  Analysis ended Wed Oct 04 16:22:31 2017
