  Page 1                                    Sat Sep 15 17:06:28 2018

  ******************************************************************
  *                           E P A N E T                          *
  *                   Hydraulic and Water Quality                  *
  *                   Analysis for Pipe Networks                   *
  *                         Version 2.00.12                        *
  ******************************************************************
  
  Analysis begun Sat Sep 15 17:06:28 2018

   
  Hydraulic Status:
  -----------------------------------------------------------------------
     0:00:00: Balanced after 6 trials
     0:00:00: Reservoir S1 is emptying
   
     1:00:00: Balanced after 3 trials
   
     2:00:00: Balanced after 3 trials
   
     3:00:00: Balanced after 3 trials
   
     4:00:00: Balanced after 3 trials
   
     5:00:00: Balanced after 3 trials
   
   
  Hydraulic Status:
  -----------------------------------------------------------------------
     0:00:00: Balanced after 6 trials
     0:00:00: Reservoir S1 is emptying
   
     1:00:00: Balanced after 3 trials
   
     2:00:00: Balanced after 3 trials
   
     3:00:00: Balanced after 3 trials
   
     4:00:00: Balanced after 3 trials
   
     5:00:00: Balanced after 3 trials
   
   
  Hydraulic Status:
  -----------------------------------------------------------------------
     0:00:00: Balanced after 5 trials
     0:00:00: Reservoir S1 is emptying
   
     1:00:00: Balanced after 3 trials
   
     2:00:00: Balanced after 3 trials
   
     3:00:00: Balanced after 3 trials
   
     4:00:00: Balanced after 3 trials
   
     5:00:00: Balanced after 3 trials
   
   
  Hydraulic Status:
  -----------------------------------------------------------------------
     0:00:00: Balanced after 5 trials
     0:00:00: Reservoir S1 is emptying
   
     1:00:00: Balanced after 3 trials
   
     2:00:00: Balanced after 3 trials
   
     3:00:00: Balanced after 3 trials
   
     4:00:00: Balanced after 3 trials
   
     5:00:00: Balanced after 3 trials
   
   
  Hydraulic Status:
  -----------------------------------------------------------------------
     0:00:00: Balanced after 5 trials
     0:00:00: Reservoir S1 is emptying
   
     1:00:00: Balanced after 3 trials
   
     2:00:00: Balanced after 3 trials
   
     3:00:00: Balanced after 3 trials
   
     4:00:00: Balanced after 3 trials
   
     5:00:00: Balanced after 3 trials
   
   
  Hydraulic Status:
  -----------------------------------------------------------------------
     0:00:00: Balanced after 5 trials
     0:00:00: Reservoir S1 is emptying
   
     1:00:00: Balanced after 3 trials
   
     2:00:00: Balanced after 3 trials
   
     3:00:00: Balanced after 3 trials
   
     4:00:00: Balanced after 3 trials
   
     5:00:00: Balanced after 3 trials
   
   
  Hydraulic Status:
  -----------------------------------------------------------------------
     0:00:00: Balanced after 5 trials
     0:00:00: Reservoir S1 is emptying
   
     1:00:00: Balanced after 3 trials
   
     2:00:00: Balanced after 3 trials
   
     3:00:00: Balanced after 3 trials
   
     4:00:00: Balanced after 3 trials
   
     5:00:00: Balanced after 3 trials
   
   
  Hydraulic Status:
  -----------------------------------------------------------------------
     0:00:00: Balanced after 5 trials
     0:00:00: Reservoir S1 is emptying
   
     1:00:00: Balanced after 3 trials
   
     2:00:00: Balanced after 3 trials
   
     3:00:00: Balanced after 3 trials
   
     4:00:00: Balanced after 3 trials
   
     5:00:00: Balanced after 3 trials
   
   
  Hydraulic Status:
  -----------------------------------------------------------------------
     0:00:00: Balanced after 5 trials
     0:00:00: Reservoir S1 is emptying
   
     1:00:00: Balanced after 3 trials
   
     2:00:00: Balanced after 3 trials
   
     3:00:00: Balanced after 3 trials
   
     4:00:00: Balanced after 3 trials
   
     5:00:00: Balanced after 3 trials
   
   
  Hydraulic Status:
  -----------------------------------------------------------------------
     0:00:00: Balanced after 5 trials
     0:00:00: Reservoir S1 is emptying
   
     1:00:00: Balanced after 3 trials
   
     2:00:00: Balanced after 3 trials
   
     3:00:00: Balanced after 3 trials
   
     4:00:00: Balanced after 3 trials
   
     5:00:00: Balanced after 3 trials
   
   
  Hydraulic Status:
  -----------------------------------------------------------------------
     0:00:00: Balanced after 5 trials
     0:00:00: Reservoir S1 is emptying
   
     1:00:00: Balanced after 3 trials
   
     2:00:00: Balanced after 3 trials
   
     3:00:00: Balanced after 3 trials
   
     4:00:00: Balanced after 3 trials
   
     5:00:00: Balanced after 3 trials
   
   
  Hydraulic Status:
  -----------------------------------------------------------------------
     0:00:00: Balanced after 5 trials
     0:00:00: Reservoir S1 is emptying
   
     1:00:00: Balanced after 3 trials
   
     2:00:00: Balanced after 3 trials
   
     3:00:00: Balanced after 3 trials
   
     4:00:00: Balanced after 3 trials
   
     5:00:00: Balanced after 3 trials
   
   
  Hydraulic Status:
  -----------------------------------------------------------------------
     0:00:00: Balanced after 5 trials
     0:00:00: Reservoir S1 is emptying
   
     1:00:00: Balanced after 3 trials
   
     2:00:00: Balanced after 3 trials
   
     3:00:00: Balanced after 3 trials
   
     4:00:00: Balanced after 3 trials
   
     5:00:00: Balanced after 3 trials
   
   
  Hydraulic Status:
  -----------------------------------------------------------------------
     0:00:00: Balanced after 5 trials
     0:00:00: Reservoir S1 is emptying
   
     1:00:00: Balanced after 3 trials
   
     2:00:00: Balanced after 3 trials
   
     3:00:00: Balanced after 3 trials
   
     4:00:00: Balanced after 3 trials
   
     5:00:00: Balanced after 3 trials
   
   
  Hydraulic Status:
  -----------------------------------------------------------------------
     0:00:00: Balanced after 5 trials
     0:00:00: Reservoir S1 is emptying
   
     1:00:00: Balanced after 3 trials
   
     2:00:00: Balanced after 3 trials
   
     3:00:00: Balanced after 3 trials
   
     4:00:00: Balanced after 3 trials
   
     5:00:00: Balanced after 3 trials
   
  Analysis ended Sat Sep 15 17:08:20 2018
