  Page 1                                    Tue Mar 25 18:19:24 2014

  ******************************************************************
  *                           E P A N E T                          *
  *                   Hydraulic and Water Quality                  *
  *                   Analysis for Pipe Networks                   *
  *                         Version 2.00.12                        *
  ******************************************************************
  
  Analysis begun Tue Mar 25 18:19:24 2014

  Analysis ended Tue Mar 25 18:20:49 2014
